GPGPU-Sim version 4.2.0 (build gpgpu-sim-modified) configured with AccelWattch.
setup_environment succeeded
make: Entering directory '/home/roman/dev/box/accelsim/accel-sim-framework-dev/gpu-simulator'
if [ ! -d ./bin/release ]; then mkdir -p ./bin/release; fi;
if [ ! -d ./build/release ]; then mkdir -p ./build/release; fi;
touch ./build/release/main.makedepend
makedepend -f./build/release/main.makedepend -p./build/release/ main.cc 2> /dev/null
rm -rf ./bin/release
rm -rf ./build/release
make clean -C gpgpu-sim
make[1]: Entering directory '/home/roman/dev/box/accelsim/accel-sim-framework-dev/gpu-simulator/gpgpu-sim'
if [ ! -d lib/gcc-8.4.0/cuda-10010/release ]; then mkdir -p lib/gcc-8.4.0/cuda-10010/release; fi;
if [ ! -d /home/roman/dev/box/accelsim/accel-sim-framework-dev/gpu-simulator/gpgpu-sim/build/gcc-8.4.0/cuda-10010/release/libcuda ]; then mkdir -p /home/roman/dev/box/accelsim/accel-sim-framework-dev/gpu-simulator/gpgpu-sim/build/gcc-8.4.0/cuda-10010/release/libcuda; fi;
if [ ! -d /home/roman/dev/box/accelsim/accel-sim-framework-dev/gpu-simulator/gpgpu-sim/build/gcc-8.4.0/cuda-10010/release/cuda-sim ]; then mkdir -p /home/roman/dev/box/accelsim/accel-sim-framework-dev/gpu-simulator/gpgpu-sim/build/gcc-8.4.0/cuda-10010/release/cuda-sim; fi;
if [ ! -d /home/roman/dev/box/accelsim/accel-sim-framework-dev/gpu-simulator/gpgpu-sim/build/gcc-8.4.0/cuda-10010/release/cuda-sim/decuda_pred_table ]; then mkdir -p /home/roman/dev/box/accelsim/accel-sim-framework-dev/gpu-simulator/gpgpu-sim/build/gcc-8.4.0/cuda-10010/release/cuda-sim/decuda_pred_table; fi;
if [ ! -d /home/roman/dev/box/accelsim/accel-sim-framework-dev/gpu-simulator/gpgpu-sim/build/gcc-8.4.0/cuda-10010/release/gpgpu-sim ]; then mkdir -p /home/roman/dev/box/accelsim/accel-sim-framework-dev/gpu-simulator/gpgpu-sim/build/gcc-8.4.0/cuda-10010/release/gpgpu-sim; fi;
if [ ! -d /home/roman/dev/box/accelsim/accel-sim-framework-dev/gpu-simulator/gpgpu-sim/build/gcc-8.4.0/cuda-10010/release/libopencl ]; then mkdir -p /home/roman/dev/box/accelsim/accel-sim-framework-dev/gpu-simulator/gpgpu-sim/build/gcc-8.4.0/cuda-10010/release/libopencl; fi;
if [ ! -d /home/roman/dev/box/accelsim/accel-sim-framework-dev/gpu-simulator/gpgpu-sim/build/gcc-8.4.0/cuda-10010/release/libopencl/bin ]; then mkdir -p /home/roman/dev/box/accelsim/accel-sim-framework-dev/gpu-simulator/gpgpu-sim/build/gcc-8.4.0/cuda-10010/release/libopencl/bin; fi;
if [ ! -d /home/roman/dev/box/accelsim/accel-sim-framework-dev/gpu-simulator/gpgpu-sim/build/gcc-8.4.0/cuda-10010/release/intersim2 ]; then mkdir -p /home/roman/dev/box/accelsim/accel-sim-framework-dev/gpu-simulator/gpgpu-sim/build/gcc-8.4.0/cuda-10010/release/intersim2; fi;
if [ ! -d /home/roman/dev/box/accelsim/accel-sim-framework-dev/gpu-simulator/gpgpu-sim/build/gcc-8.4.0/cuda-10010/release/cuobjdump_to_ptxplus ]; then mkdir -p /home/roman/dev/box/accelsim/accel-sim-framework-dev/gpu-simulator/gpgpu-sim/build/gcc-8.4.0/cuda-10010/release/cuobjdump_to_ptxplus; fi;
if [ ! -d /home/roman/dev/box/accelsim/accel-sim-framework-dev/gpu-simulator/gpgpu-sim/build/gcc-8.4.0/cuda-10010/release/accelwattch ]; then mkdir -p /home/roman/dev/box/accelsim/accel-sim-framework-dev/gpu-simulator/gpgpu-sim/build/gcc-8.4.0/cuda-10010/release/accelwattch; fi;
if [ ! -d /home/roman/dev/box/accelsim/accel-sim-framework-dev/gpu-simulator/gpgpu-sim/build/gcc-8.4.0/cuda-10010/release/accelwattch/cacti ]; then mkdir -p /home/roman/dev/box/accelsim/accel-sim-framework-dev/gpu-simulator/gpgpu-sim/build/gcc-8.4.0/cuda-10010/release/accelwattch/cacti; fi;
make cleangpgpusim
make[2]: Entering directory '/home/roman/dev/box/accelsim/accel-sim-framework-dev/gpu-simulator/gpgpu-sim'
make clean -C doc/doxygen/
make[3]: Entering directory '/home/roman/dev/box/accelsim/accel-sim-framework-dev/gpu-simulator/gpgpu-sim/doc/doxygen'
rm -rf latex html
make[3]: Leaving directory '/home/roman/dev/box/accelsim/accel-sim-framework-dev/gpu-simulator/gpgpu-sim/doc/doxygen'
rm -rf lib/gcc-8.4.0/cuda-10010/release
rm -rf /home/roman/dev/box/accelsim/accel-sim-framework-dev/gpu-simulator/gpgpu-sim/build/gcc-8.4.0/cuda-10010/release
rm -f *~ *.o ./src/cuda-sim/*.gcda ./src/cuda-sim/*.gcno ./src/cuda-sim/*.gcov ./src/cuda-sim/libgpgpu_ptx_sim.a \
                ./src/cuda-sim/ptx.tab.h ./src/cuda-sim/ptx.tab.c ./src/cuda-sim/ptx.output ./src/cuda-sim/lex.ptx_.c \
                ./src/cuda-sim/ptxinfo.tab.h ./src/cuda-sim/ptxinfo.tab.c ./src/cuda-sim/ptxinfo.output ./src/cuda-sim/lex.ptxinfo_.c \
                ./src/cuda-sim/instructions.h ./src/cuda-sim/ptx_parser_decode.def ./src/cuda-sim/directed_tests.log \
	./cuobjdump_to_ptxplus/elf_lexer.cc ./cuobjdump_to_ptxplus/elf_parser.cc ./cuobjdump_to_ptxplus/elf_parser.hh \
	./cuobjdump_to_ptxplus/header_lexer.cc ./cuobjdump_to_ptxplus/header_parser.cc ./cuobjdump_to_ptxplus/header_parser.hh \
	./cuobjdump_to_ptxplus/lex.ptx_.c ./cuobjdump_to_ptxplus/ptx.output ./cuobjdump_to_ptxplus/ptx.tab.h cuobjdump_to_ptxplus/ptx.tab.h \
	./cuobjdump_to_ptxplus/sass_lexer.cc ./cuobjdump_to_ptxplus/sass_parser.cc ./cuobjdump_to_ptxplus/sass_parser.hh \
	./cuobjdump_to_ptxplus/ptx.tab.cc ./cuobjdump_to_ptxplus/*.output
make[2]: Leaving directory '/home/roman/dev/box/accelsim/accel-sim-framework-dev/gpu-simulator/gpgpu-sim'
make[1]: Leaving directory '/home/roman/dev/box/accelsim/accel-sim-framework-dev/gpu-simulator/gpgpu-sim'
make: Leaving directory '/home/roman/dev/box/accelsim/accel-sim-framework-dev/gpu-simulator'
make: Entering directory '/home/roman/dev/box/accelsim/accel-sim-framework-dev/gpu-simulator'
if [ ! -d ./bin/release ]; then mkdir -p ./bin/release; fi;
if [ ! -d ./build/release ]; then mkdir -p ./build/release; fi;
touch ./build/release/main.makedepend
makedepend -f./build/release/main.makedepend -p./build/release/ main.cc 2> /dev/null
make -C trace-driven depend
make -C trace-parser depend
make -C gpgpu-sim
echo "const char *g_accelsim_version=\"accelsim-commit-d0e1886_modified_5.0\";" > ./build/release/accelsim_version.h
make[1]: Entering directory '/home/roman/dev/box/accelsim/accel-sim-framework-dev/gpu-simulator/gpgpu-sim'
make[1]: Entering directory '/home/roman/dev/box/accelsim/accel-sim-framework-dev/gpu-simulator/trace-driven'
make[1]: Entering directory '/home/roman/dev/box/accelsim/accel-sim-framework-dev/gpu-simulator/trace-parser'
g++ -Wall -O3 -g3 -fPIC -std=c++11  -I./build/release -I./trace-driven -I./trace-parser -I/home/roman/dev/box/accelsim/accel-sim-framework-dev/gpu-simulator/gpgpu-sim/libcuda -I/home/roman/dev/box/accelsim/accel-sim-framework-dev/gpu-simulator/gpgpu-sim/src -I/usr/local/cuda/include -c main.cc -o ./build/release/main.o
touch ../build/release/trace-driven.Makefile.makedepend
makedepend -f../build/release/trace-driven.Makefile.makedepend -p../build/release/ trace_driven.cc 2> /dev/null
make[1]: 'depend' is up to date.
make[1]: Leaving directory '/home/roman/dev/box/accelsim/accel-sim-framework-dev/gpu-simulator/trace-driven'
make -C trace-driven
make[1]: Entering directory '/home/roman/dev/box/accelsim/accel-sim-framework-dev/gpu-simulator/trace-driven'
touch ../build/release/trace-parser.Makefile.makedepend
makedepend -f../build/release/trace-parser.Makefile.makedepend -p../build/release/ trace_parser.cc 2> /dev/null
make[1]: 'depend' is up to date.
make[1]: Leaving directory '/home/roman/dev/box/accelsim/accel-sim-framework-dev/gpu-simulator/trace-parser'
make -C trace-parser
make[1]: Entering directory '/home/roman/dev/box/accelsim/accel-sim-framework-dev/gpu-simulator/trace-parser'
touch ../build/release/trace-driven.Makefile.makedepend
makedepend -f../build/release/trace-driven.Makefile.makedepend -p../build/release/ trace_driven.cc 2> /dev/null
touch ../build/release/trace-parser.Makefile.makedepend
makedepend -f../build/release/trace-parser.Makefile.makedepend -p../build/release/ trace_parser.cc 2> /dev/null
g++ -O3 -g3 -fPIC -std=c++11 -Wall -I/usr/local/cuda/include -I. -I/home/roman/dev/box/accelsim/accel-sim-framework-dev/gpu-simulator/gpgpu-sim/libcuda -I/home/roman/dev/box/accelsim/accel-sim-framework-dev/gpu-simulator/gpgpu-sim/src -c trace_parser.cc -o ../build/release/trace_parser.o 
g++ -O3 -g3 -fPIC -std=c++11 -Wall -I/usr/local/cuda/include -I. -I/home/roman/dev/box/accelsim/accel-sim-framework-dev/gpu-simulator/gpgpu-sim/libcuda -I/home/roman/dev/box/accelsim/accel-sim-framework-dev/gpu-simulator/gpgpu-sim/src -c trace_driven.cc -o ../build/release/trace_driven.o 

	Building GPGPU-Sim version 4.2.0 (build gpgpu-sim_git-commit-d0e1886_modified_6.0) with CUDA version 10.1

if [ ! -d lib/gcc-8.4.0/cuda-10010/release ]; then mkdir -p lib/gcc-8.4.0/cuda-10010/release; fi;
Warning: gpgpu-sim is building without opencl support. Make sure NVOPENCL_LIBDIR and NVOPENCL_INCDIR are set
if [ ! -d /home/roman/dev/box/accelsim/accel-sim-framework-dev/gpu-simulator/gpgpu-sim/build/gcc-8.4.0/cuda-10010/release/libcuda ]; then mkdir -p /home/roman/dev/box/accelsim/accel-sim-framework-dev/gpu-simulator/gpgpu-sim/build/gcc-8.4.0/cuda-10010/release/libcuda; fi;
if [ ! -d /home/roman/dev/box/accelsim/accel-sim-framework-dev/gpu-simulator/gpgpu-sim/build/gcc-8.4.0/cuda-10010/release/cuda-sim ]; then mkdir -p /home/roman/dev/box/accelsim/accel-sim-framework-dev/gpu-simulator/gpgpu-sim/build/gcc-8.4.0/cuda-10010/release/cuda-sim; fi;
if [ ! -d /home/roman/dev/box/accelsim/accel-sim-framework-dev/gpu-simulator/gpgpu-sim/build/gcc-8.4.0/cuda-10010/release/cuda-sim/decuda_pred_table ]; then mkdir -p /home/roman/dev/box/accelsim/accel-sim-framework-dev/gpu-simulator/gpgpu-sim/build/gcc-8.4.0/cuda-10010/release/cuda-sim/decuda_pred_table; fi;
if [ ! -d /home/roman/dev/box/accelsim/accel-sim-framework-dev/gpu-simulator/gpgpu-sim/build/gcc-8.4.0/cuda-10010/release/gpgpu-sim ]; then mkdir -p /home/roman/dev/box/accelsim/accel-sim-framework-dev/gpu-simulator/gpgpu-sim/build/gcc-8.4.0/cuda-10010/release/gpgpu-sim; fi;
if [ ! -d /home/roman/dev/box/accelsim/accel-sim-framework-dev/gpu-simulator/gpgpu-sim/build/gcc-8.4.0/cuda-10010/release/libopencl ]; then mkdir -p /home/roman/dev/box/accelsim/accel-sim-framework-dev/gpu-simulator/gpgpu-sim/build/gcc-8.4.0/cuda-10010/release/libopencl; fi;
if [ ! -d /home/roman/dev/box/accelsim/accel-sim-framework-dev/gpu-simulator/gpgpu-sim/build/gcc-8.4.0/cuda-10010/release/libopencl/bin ]; then mkdir -p /home/roman/dev/box/accelsim/accel-sim-framework-dev/gpu-simulator/gpgpu-sim/build/gcc-8.4.0/cuda-10010/release/libopencl/bin; fi;
if [ ! -d /home/roman/dev/box/accelsim/accel-sim-framework-dev/gpu-simulator/gpgpu-sim/build/gcc-8.4.0/cuda-10010/release/intersim2 ]; then mkdir -p /home/roman/dev/box/accelsim/accel-sim-framework-dev/gpu-simulator/gpgpu-sim/build/gcc-8.4.0/cuda-10010/release/intersim2; fi;
if [ ! -d /home/roman/dev/box/accelsim/accel-sim-framework-dev/gpu-simulator/gpgpu-sim/build/gcc-8.4.0/cuda-10010/release/cuobjdump_to_ptxplus ]; then mkdir -p /home/roman/dev/box/accelsim/accel-sim-framework-dev/gpu-simulator/gpgpu-sim/build/gcc-8.4.0/cuda-10010/release/cuobjdump_to_ptxplus; fi;
if [ ! -d /home/roman/dev/box/accelsim/accel-sim-framework-dev/gpu-simulator/gpgpu-sim/build/gcc-8.4.0/cuda-10010/release/accelwattch ]; then mkdir -p /home/roman/dev/box/accelsim/accel-sim-framework-dev/gpu-simulator/gpgpu-sim/build/gcc-8.4.0/cuda-10010/release/accelwattch; fi;
if [ ! -d /home/roman/dev/box/accelsim/accel-sim-framework-dev/gpu-simulator/gpgpu-sim/build/gcc-8.4.0/cuda-10010/release/accelwattch/cacti ]; then mkdir -p /home/roman/dev/box/accelsim/accel-sim-framework-dev/gpu-simulator/gpgpu-sim/build/gcc-8.4.0/cuda-10010/release/accelwattch/cacti; fi;
make -C ./src/cuda-sim/ depend
make -C /home/roman/dev/box/accelsim/accel-sim-framework-dev/gpu-simulator/gpgpu-sim/src/accelwattch/ depend
make[2]: Entering directory '/home/roman/dev/box/accelsim/accel-sim-framework-dev/gpu-simulator/gpgpu-sim/src/cuda-sim'
make[2]: Entering directory '/home/roman/dev/box/accelsim/accel-sim-framework-dev/gpu-simulator/gpgpu-sim/src/accelwattch'
make[3]: Entering directory '/home/roman/dev/box/accelsim/accel-sim-framework-dev/gpu-simulator/gpgpu-sim/src/accelwattch'
touch /home/roman/dev/box/accelsim/accel-sim-framework-dev/gpu-simulator/gpgpu-sim/build/gcc-8.4.0/cuda-10010/release/accelwattch/Makefile.makedepend
makedepend -f/home/roman/dev/box/accelsim/accel-sim-framework-dev/gpu-simulator/gpgpu-sim/build/gcc-8.4.0/cuda-10010/release/accelwattch/Makefile.makedepend -p/home/roman/dev/box/accelsim/accel-sim-framework-dev/gpu-simulator/gpgpu-sim/build/gcc-8.4.0/cuda-10010/release/accelwattch/ Ucache.cc XML_Parse.cc arbiter.cc area.cc array.cc bank.cc basic_circuit.cc basic_components.cc cacti_interface.cc component.cc core.cc crossbar.cc decoder.cc htree2.cc interconnect.cc io.cc iocontrollers.cc logic.cc main.cc mat.cc memoryctrl.cc noc.cc nuca.cc parameter.cc processor.cc router.cc sharedcache.cc subarray.cc technology.cc uca.cc wire.cc xmlParser.cc gpgpu_sim_wrapper.cc  2> /dev/null
make -C ./cacti/ depend
make[4]: Entering directory '/home/roman/dev/box/accelsim/accel-sim-framework-dev/gpu-simulator/gpgpu-sim/src/accelwattch/cacti'
make[5]: Entering directory '/home/roman/dev/box/accelsim/accel-sim-framework-dev/gpu-simulator/gpgpu-sim/src/accelwattch/cacti'
touch /home/roman/dev/box/accelsim/accel-sim-framework-dev/gpu-simulator/gpgpu-sim/build/gcc-8.4.0/cuda-10010/release/accelwattch/cacti/Makefile.makedepend
makedepend -f/home/roman/dev/box/accelsim/accel-sim-framework-dev/gpu-simulator/gpgpu-sim/build/gcc-8.4.0/cuda-10010/release/accelwattch/cacti/Makefile.makedepend -p/home/roman/dev/box/accelsim/accel-sim-framework-dev/gpu-simulator/gpgpu-sim/build/gcc-8.4.0/cuda-10010/release/accelwattch/cacti/ area.cc bank.cc mat.cc main.cc Ucache.cc io.cc technology.cc basic_circuit.cc parameter.cc decoder.cc component.cc uca.cc subarray.cc wire.cc htree2.cc cacti_interface.cc router.cc nuca.cc crossbar.cc arbiter.cc  2> /dev/null
make[5]: Nothing to be done for 'depend'.
make[5]: Leaving directory '/home/roman/dev/box/accelsim/accel-sim-framework-dev/gpu-simulator/gpgpu-sim/src/accelwattch/cacti'
make[4]: Leaving directory '/home/roman/dev/box/accelsim/accel-sim-framework-dev/gpu-simulator/gpgpu-sim/src/accelwattch/cacti'
make[3]: Nothing to be done for 'depend'.
make[3]: Leaving directory '/home/roman/dev/box/accelsim/accel-sim-framework-dev/gpu-simulator/gpgpu-sim/src/accelwattch'
make[2]: Leaving directory '/home/roman/dev/box/accelsim/accel-sim-framework-dev/gpu-simulator/gpgpu-sim/src/accelwattch'
make -C /home/roman/dev/box/accelsim/accel-sim-framework-dev/gpu-simulator/gpgpu-sim/src/accelwattch/ 
make[2]: Entering directory '/home/roman/dev/box/accelsim/accel-sim-framework-dev/gpu-simulator/gpgpu-sim/src/accelwattch'
make[3]: Entering directory '/home/roman/dev/box/accelsim/accel-sim-framework-dev/gpu-simulator/gpgpu-sim/src/accelwattch'
touch /home/roman/dev/box/accelsim/accel-sim-framework-dev/gpu-simulator/gpgpu-sim/build/gcc-8.4.0/cuda-10010/release/accelwattch/Makefile.makedepend
makedepend -f/home/roman/dev/box/accelsim/accel-sim-framework-dev/gpu-simulator/gpgpu-sim/build/gcc-8.4.0/cuda-10010/release/accelwattch/Makefile.makedepend -p/home/roman/dev/box/accelsim/accel-sim-framework-dev/gpu-simulator/gpgpu-sim/build/gcc-8.4.0/cuda-10010/release/accelwattch/ Ucache.cc XML_Parse.cc arbiter.cc area.cc array.cc bank.cc basic_circuit.cc basic_components.cc cacti_interface.cc component.cc core.cc crossbar.cc decoder.cc htree2.cc interconnect.cc io.cc iocontrollers.cc logic.cc main.cc mat.cc memoryctrl.cc noc.cc nuca.cc parameter.cc processor.cc router.cc sharedcache.cc subarray.cc technology.cc uca.cc wire.cc xmlParser.cc gpgpu_sim_wrapper.cc  2> /dev/null
touch /home/roman/dev/box/accelsim/accel-sim-framework-dev/gpu-simulator/gpgpu-sim/build/gcc-8.4.0/cuda-10010/release/cuda-sim/Makefile.makedepend
make -C ./cacti/ depend
makedepend -f/home/roman/dev/box/accelsim/accel-sim-framework-dev/gpu-simulator/gpgpu-sim/build/gcc-8.4.0/cuda-10010/release/cuda-sim/Makefile.makedepend -p/home/roman/dev/box/accelsim/accel-sim-framework-dev/gpu-simulator/gpgpu-sim/build/gcc-8.4.0/cuda-10010/release/cuda-sim/ cuda_device_printf.cc cuda_device_runtime.cc cuda-sim.cc instructions.cc memory.cc ptx_ir.cc ptx_loader.cc ptx_parser.cc ptx_sim.cc ptx-stats.cc 2> /dev/null
make[4]: Entering directory '/home/roman/dev/box/accelsim/accel-sim-framework-dev/gpu-simulator/gpgpu-sim/src/accelwattch/cacti'
make[5]: Entering directory '/home/roman/dev/box/accelsim/accel-sim-framework-dev/gpu-simulator/gpgpu-sim/src/accelwattch/cacti'
touch /home/roman/dev/box/accelsim/accel-sim-framework-dev/gpu-simulator/gpgpu-sim/build/gcc-8.4.0/cuda-10010/release/accelwattch/cacti/Makefile.makedepend
makedepend -f/home/roman/dev/box/accelsim/accel-sim-framework-dev/gpu-simulator/gpgpu-sim/build/gcc-8.4.0/cuda-10010/release/accelwattch/cacti/Makefile.makedepend -p/home/roman/dev/box/accelsim/accel-sim-framework-dev/gpu-simulator/gpgpu-sim/build/gcc-8.4.0/cuda-10010/release/accelwattch/cacti/ area.cc bank.cc mat.cc main.cc Ucache.cc io.cc technology.cc basic_circuit.cc parameter.cc decoder.cc component.cc uca.cc subarray.cc wire.cc htree2.cc cacti_interface.cc router.cc nuca.cc crossbar.cc arbiter.cc  2> /dev/null
make[5]: Nothing to be done for 'depend'.
make[5]: Leaving directory '/home/roman/dev/box/accelsim/accel-sim-framework-dev/gpu-simulator/gpgpu-sim/src/accelwattch/cacti'
make[4]: Leaving directory '/home/roman/dev/box/accelsim/accel-sim-framework-dev/gpu-simulator/gpgpu-sim/src/accelwattch/cacti'
g++ -m64 -Wno-unknown-pragmas  -O3 -fPIC -msse2 -mfpmath=sse -DNTHREADS=4 -Icacti -lz  -c cacti/Ucache.cc -o /home/roman/dev/box/accelsim/accel-sim-framework-dev/gpu-simulator/gpgpu-sim/build/gcc-8.4.0/cuda-10010/release/accelwattch/Ucache.o
g++ -m64 -Wno-unknown-pragmas  -O3 -fPIC -msse2 -mfpmath=sse -DNTHREADS=4 -Icacti -lz  -c XML_Parse.cc -o /home/roman/dev/box/accelsim/accel-sim-framework-dev/gpu-simulator/gpgpu-sim/build/gcc-8.4.0/cuda-10010/release/accelwattch/XML_Parse.o
g++ -m64 -Wno-unknown-pragmas  -O3 -fPIC -msse2 -mfpmath=sse -DNTHREADS=4 -Icacti -lz  -c cacti/arbiter.cc -o /home/roman/dev/box/accelsim/accel-sim-framework-dev/gpu-simulator/gpgpu-sim/build/gcc-8.4.0/cuda-10010/release/accelwattch/arbiter.o
make[2]: 'depend' is up to date.
make[2]: Leaving directory '/home/roman/dev/box/accelsim/accel-sim-framework-dev/gpu-simulator/gpgpu-sim/src/cuda-sim'
make -C ./src/cuda-sim/
g++ -m64 -Wno-unknown-pragmas  -O3 -fPIC -msse2 -mfpmath=sse -DNTHREADS=4 -Icacti -lz  -c cacti/area.cc -o /home/roman/dev/box/accelsim/accel-sim-framework-dev/gpu-simulator/gpgpu-sim/build/gcc-8.4.0/cuda-10010/release/accelwattch/area.o
g++ -m64 -Wno-unknown-pragmas  -O3 -fPIC -msse2 -mfpmath=sse -DNTHREADS=4 -Icacti -lz  -c array.cc -o /home/roman/dev/box/accelsim/accel-sim-framework-dev/gpu-simulator/gpgpu-sim/build/gcc-8.4.0/cuda-10010/release/accelwattch/array.o
g++ -m64 -Wno-unknown-pragmas  -O3 -fPIC -msse2 -mfpmath=sse -DNTHREADS=4 -Icacti -lz  -c cacti/bank.cc -o /home/roman/dev/box/accelsim/accel-sim-framework-dev/gpu-simulator/gpgpu-sim/build/gcc-8.4.0/cuda-10010/release/accelwattch/bank.o
make[2]: Entering directory '/home/roman/dev/box/accelsim/accel-sim-framework-dev/gpu-simulator/gpgpu-sim/src/cuda-sim'
g++ -m64 -Wno-unknown-pragmas  -O3 -fPIC -msse2 -mfpmath=sse -DNTHREADS=4 -Icacti -lz  -c cacti/basic_circuit.cc -o /home/roman/dev/box/accelsim/accel-sim-framework-dev/gpu-simulator/gpgpu-sim/build/gcc-8.4.0/cuda-10010/release/accelwattch/basic_circuit.o
g++ -m64 -Wno-unknown-pragmas  -O3 -fPIC -msse2 -mfpmath=sse -DNTHREADS=4 -Icacti -lz  -c basic_components.cc -o /home/roman/dev/box/accelsim/accel-sim-framework-dev/gpu-simulator/gpgpu-sim/build/gcc-8.4.0/cuda-10010/release/accelwattch/basic_components.o
g++ -m64 -Wno-unknown-pragmas  -O3 -fPIC -msse2 -mfpmath=sse -DNTHREADS=4 -Icacti -lz  -c cacti/cacti_interface.cc -o /home/roman/dev/box/accelsim/accel-sim-framework-dev/gpu-simulator/gpgpu-sim/build/gcc-8.4.0/cuda-10010/release/accelwattch/cacti_interface.o
g++ -m64 -Wno-unknown-pragmas  -O3 -fPIC -msse2 -mfpmath=sse -DNTHREADS=4 -Icacti -lz  -c cacti/component.cc -o /home/roman/dev/box/accelsim/accel-sim-framework-dev/gpu-simulator/gpgpu-sim/build/gcc-8.4.0/cuda-10010/release/accelwattch/component.o
g++ -m64 -Wno-unknown-pragmas  -O3 -fPIC -msse2 -mfpmath=sse -DNTHREADS=4 -Icacti -lz  -c core.cc -o /home/roman/dev/box/accelsim/accel-sim-framework-dev/gpu-simulator/gpgpu-sim/build/gcc-8.4.0/cuda-10010/release/accelwattch/core.o
g++ -m64 -Wno-unknown-pragmas  -O3 -fPIC -msse2 -mfpmath=sse -DNTHREADS=4 -Icacti -lz  -c cacti/crossbar.cc -o /home/roman/dev/box/accelsim/accel-sim-framework-dev/gpu-simulator/gpgpu-sim/build/gcc-8.4.0/cuda-10010/release/accelwattch/crossbar.o
g++ -m64 -Wno-unknown-pragmas  -O3 -fPIC -msse2 -mfpmath=sse -DNTHREADS=4 -Icacti -lz  -c cacti/decoder.cc -o /home/roman/dev/box/accelsim/accel-sim-framework-dev/gpu-simulator/gpgpu-sim/build/gcc-8.4.0/cuda-10010/release/accelwattch/decoder.o
g++ -m64 -Wno-unknown-pragmas  -O3 -fPIC -msse2 -mfpmath=sse -DNTHREADS=4 -Icacti -lz  -c cacti/htree2.cc -o /home/roman/dev/box/accelsim/accel-sim-framework-dev/gpu-simulator/gpgpu-sim/build/gcc-8.4.0/cuda-10010/release/accelwattch/htree2.o
g++ -m64 -Wno-unknown-pragmas  -O3 -fPIC -msse2 -mfpmath=sse -DNTHREADS=4 -Icacti -lz  -c interconnect.cc -o /home/roman/dev/box/accelsim/accel-sim-framework-dev/gpu-simulator/gpgpu-sim/build/gcc-8.4.0/cuda-10010/release/accelwattch/interconnect.o
g++ -m64 -Wno-unknown-pragmas  -O3 -fPIC -msse2 -mfpmath=sse -DNTHREADS=4 -Icacti -lz  -c cacti/io.cc -o /home/roman/dev/box/accelsim/accel-sim-framework-dev/gpu-simulator/gpgpu-sim/build/gcc-8.4.0/cuda-10010/release/accelwattch/io.o
g++ -m64 -Wno-unknown-pragmas  -O3 -fPIC -msse2 -mfpmath=sse -DNTHREADS=4 -Icacti -lz  -c iocontrollers.cc -o /home/roman/dev/box/accelsim/accel-sim-framework-dev/gpu-simulator/gpgpu-sim/build/gcc-8.4.0/cuda-10010/release/accelwattch/iocontrollers.o
g++ -m64 -Wno-unknown-pragmas  -O3 -fPIC -msse2 -mfpmath=sse -DNTHREADS=4 -Icacti -lz  -c logic.cc -o /home/roman/dev/box/accelsim/accel-sim-framework-dev/gpu-simulator/gpgpu-sim/build/gcc-8.4.0/cuda-10010/release/accelwattch/logic.o
g++ -m64 -Wno-unknown-pragmas  -O3 -fPIC -msse2 -mfpmath=sse -DNTHREADS=4 -Icacti -lz  -c main.cc -o /home/roman/dev/box/accelsim/accel-sim-framework-dev/gpu-simulator/gpgpu-sim/build/gcc-8.4.0/cuda-10010/release/accelwattch/main.o
g++ -m64 -Wno-unknown-pragmas  -O3 -fPIC -msse2 -mfpmath=sse -DNTHREADS=4 -Icacti -lz  -c cacti/mat.cc -o /home/roman/dev/box/accelsim/accel-sim-framework-dev/gpu-simulator/gpgpu-sim/build/gcc-8.4.0/cuda-10010/release/accelwattch/mat.o
g++ -m64 -Wno-unknown-pragmas  -O3 -fPIC -msse2 -mfpmath=sse -DNTHREADS=4 -Icacti -lz  -c memoryctrl.cc -o /home/roman/dev/box/accelsim/accel-sim-framework-dev/gpu-simulator/gpgpu-sim/build/gcc-8.4.0/cuda-10010/release/accelwattch/memoryctrl.o
g++ -m64 -Wno-unknown-pragmas  -O3 -fPIC -msse2 -mfpmath=sse -DNTHREADS=4 -Icacti -lz  -c noc.cc -o /home/roman/dev/box/accelsim/accel-sim-framework-dev/gpu-simulator/gpgpu-sim/build/gcc-8.4.0/cuda-10010/release/accelwattch/noc.o
g++ -m64 -Wno-unknown-pragmas  -O3 -fPIC -msse2 -mfpmath=sse -DNTHREADS=4 -Icacti -lz  -c cacti/nuca.cc -o /home/roman/dev/box/accelsim/accel-sim-framework-dev/gpu-simulator/gpgpu-sim/build/gcc-8.4.0/cuda-10010/release/accelwattch/nuca.o
g++ -m64 -Wno-unknown-pragmas  -O3 -fPIC -msse2 -mfpmath=sse -DNTHREADS=4 -Icacti -lz  -c cacti/parameter.cc -o /home/roman/dev/box/accelsim/accel-sim-framework-dev/gpu-simulator/gpgpu-sim/build/gcc-8.4.0/cuda-10010/release/accelwattch/parameter.o
g++ -m64 -Wno-unknown-pragmas  -O3 -fPIC -msse2 -mfpmath=sse -DNTHREADS=4 -Icacti -lz  -c processor.cc -o /home/roman/dev/box/accelsim/accel-sim-framework-dev/gpu-simulator/gpgpu-sim/build/gcc-8.4.0/cuda-10010/release/accelwattch/processor.o
g++ -m64 -Wno-unknown-pragmas  -O3 -fPIC -msse2 -mfpmath=sse -DNTHREADS=4 -Icacti -lz  -c cacti/router.cc -o /home/roman/dev/box/accelsim/accel-sim-framework-dev/gpu-simulator/gpgpu-sim/build/gcc-8.4.0/cuda-10010/release/accelwattch/router.o
g++ -m64 -Wno-unknown-pragmas  -O3 -fPIC -msse2 -mfpmath=sse -DNTHREADS=4 -Icacti -lz  -c sharedcache.cc -o /home/roman/dev/box/accelsim/accel-sim-framework-dev/gpu-simulator/gpgpu-sim/build/gcc-8.4.0/cuda-10010/release/accelwattch/sharedcache.o
g++ -m64 -Wno-unknown-pragmas  -O3 -fPIC -msse2 -mfpmath=sse -DNTHREADS=4 -Icacti -lz  -c cacti/subarray.cc -o /home/roman/dev/box/accelsim/accel-sim-framework-dev/gpu-simulator/gpgpu-sim/build/gcc-8.4.0/cuda-10010/release/accelwattch/subarray.o
g++ -m64 -Wno-unknown-pragmas  -O3 -fPIC -msse2 -mfpmath=sse -DNTHREADS=4 -Icacti -lz  -c cacti/technology.cc -o /home/roman/dev/box/accelsim/accel-sim-framework-dev/gpu-simulator/gpgpu-sim/build/gcc-8.4.0/cuda-10010/release/accelwattch/technology.o
g++ -m64 -Wno-unknown-pragmas  -O3 -fPIC -msse2 -mfpmath=sse -DNTHREADS=4 -Icacti -lz  -c cacti/uca.cc -o /home/roman/dev/box/accelsim/accel-sim-framework-dev/gpu-simulator/gpgpu-sim/build/gcc-8.4.0/cuda-10010/release/accelwattch/uca.o
g++ -m64 -Wno-unknown-pragmas  -O3 -fPIC -msse2 -mfpmath=sse -DNTHREADS=4 -Icacti -lz  -c cacti/wire.cc -o /home/roman/dev/box/accelsim/accel-sim-framework-dev/gpu-simulator/gpgpu-sim/build/gcc-8.4.0/cuda-10010/release/accelwattch/wire.o
g++ -m64 -Wno-unknown-pragmas  -O3 -fPIC -msse2 -mfpmath=sse -DNTHREADS=4 -Icacti -lz  -c xmlParser.cc -o /home/roman/dev/box/accelsim/accel-sim-framework-dev/gpu-simulator/gpgpu-sim/build/gcc-8.4.0/cuda-10010/release/accelwattch/xmlParser.o
g++ -m64 -Wno-unknown-pragmas  -O3 -fPIC -msse2 -mfpmath=sse -DNTHREADS=4 -Icacti -lz  -c gpgpu_sim_wrapper.cc -o /home/roman/dev/box/accelsim/accel-sim-framework-dev/gpu-simulator/gpgpu-sim/build/gcc-8.4.0/cuda-10010/release/accelwattch/gpgpu_sim_wrapper.o
touch /home/roman/dev/box/accelsim/accel-sim-framework-dev/gpu-simulator/gpgpu-sim/build/gcc-8.4.0/cuda-10010/release/cuda-sim/Makefile.makedepend
makedepend -f/home/roman/dev/box/accelsim/accel-sim-framework-dev/gpu-simulator/gpgpu-sim/build/gcc-8.4.0/cuda-10010/release/cuda-sim/Makefile.makedepend -p/home/roman/dev/box/accelsim/accel-sim-framework-dev/gpu-simulator/gpgpu-sim/build/gcc-8.4.0/cuda-10010/release/cuda-sim/ cuda_device_printf.cc cuda_device_runtime.cc cuda-sim.cc instructions.cc memory.cc ptx_ir.cc ptx_loader.cc ptx_parser.cc ptx_sim.cc ptx-stats.cc 2> /dev/null
bison --name-prefix=ptx_ -v -d ptx.y --file-prefix=/home/roman/dev/box/accelsim/accel-sim-framework-dev/gpu-simulator/gpgpu-sim/build/gcc-8.4.0/cuda-10010/release/cuda-sim/ptx
g++  -c -O3 -g3 -Wall -Wno-unused-function -Wno-sign-compare -I/usr/local/cuda/include  -I/home/roman/dev/box/accelsim/accel-sim-framework-dev/gpu-simulator/gpgpu-sim/build/gcc-8.4.0/cuda-10010/release/cuda-sim/ -I. -I/home/roman/dev/box/accelsim/accel-sim-framework-dev/gpu-simulator/gpgpu-sim/build/gcc-8.4.0/cuda-10010/release -fPIC  -DTRACING_ON=1 -DCUDART_VERSION=10010 -std=c++0x memory.cc -o /home/roman/dev/box/accelsim/accel-sim-framework-dev/gpu-simulator/gpgpu-sim/build/gcc-8.4.0/cuda-10010/release/cuda-sim/memory.o
g++  -c -O3 -g3 -Wall -Wno-unused-function -Wno-sign-compare -I/usr/local/cuda/include  -I/home/roman/dev/box/accelsim/accel-sim-framework-dev/gpu-simulator/gpgpu-sim/build/gcc-8.4.0/cuda-10010/release/cuda-sim/ -I. -I/home/roman/dev/box/accelsim/accel-sim-framework-dev/gpu-simulator/gpgpu-sim/build/gcc-8.4.0/cuda-10010/release -fPIC  -DTRACING_ON=1 -DCUDART_VERSION=10010 -std=c++0x decuda_pred_table/decuda_pred_table.cc -o /home/roman/dev/box/accelsim/accel-sim-framework-dev/gpu-simulator/gpgpu-sim/build/gcc-8.4.0/cuda-10010/release/cuda-sim/decuda_pred_table/decuda_pred_table.o
flex --outfile=/home/roman/dev/box/accelsim/accel-sim-framework-dev/gpu-simulator/gpgpu-sim/build/gcc-8.4.0/cuda-10010/release/cuda-sim/lex.ptx_.c ptx.l 
bison --name-prefix=ptxinfo_ -v -d ptxinfo.y --file-prefix=/home/roman/dev/box/accelsim/accel-sim-framework-dev/gpu-simulator/gpgpu-sim/build/gcc-8.4.0/cuda-10010/release/cuda-sim/ptxinfo
flex --outfile=/home/roman/dev/box/accelsim/accel-sim-framework-dev/gpu-simulator/gpgpu-sim/build/gcc-8.4.0/cuda-10010/release/cuda-sim/lex.ptxinfo_.c ptxinfo.l 
created /home/roman/dev/box/accelsim/accel-sim-framework-dev/gpu-simulator/gpgpu-sim/build/gcc-8.4.0/cuda-10010/release/cuda-sim/instructions.h
cat /home/roman/dev/box/accelsim/accel-sim-framework-dev/gpu-simulator/gpgpu-sim/build/gcc-8.4.0/cuda-10010/release/cuda-sim/ptx.tab.h | grep "=" | sed 's/^[ ]\+//' | sed 's/[=,]//g' | sed 's/\([_A-Z1-9]\+\)[ ]\+\([0-9]\+\)/\1 \1/' | sed 's/^/DEF(/' | sed 's/ /,"/' | sed 's/$/")/' > /home/roman/dev/box/accelsim/accel-sim-framework-dev/gpu-simulator/gpgpu-sim/build/gcc-8.4.0/cuda-10010/release/cuda-sim/ptx_parser_decode.def
g++  -c -O3 -g3 -Wall -Wno-unused-function -Wno-sign-compare -I/usr/local/cuda/include  -I/home/roman/dev/box/accelsim/accel-sim-framework-dev/gpu-simulator/gpgpu-sim/build/gcc-8.4.0/cuda-10010/release/cuda-sim/ -I. -I/home/roman/dev/box/accelsim/accel-sim-framework-dev/gpu-simulator/gpgpu-sim/build/gcc-8.4.0/cuda-10010/release -fPIC  -DTRACING_ON=1 -DCUDART_VERSION=10010 -std=c++0x cuda_device_printf.cc -o /home/roman/dev/box/accelsim/accel-sim-framework-dev/gpu-simulator/gpgpu-sim/build/gcc-8.4.0/cuda-10010/release/cuda-sim/cuda_device_printf.o
g++  -c -O3 -g3 -Wall -Wno-unused-function -Wno-sign-compare -I/usr/local/cuda/include  -I/home/roman/dev/box/accelsim/accel-sim-framework-dev/gpu-simulator/gpgpu-sim/build/gcc-8.4.0/cuda-10010/release/cuda-sim/ -I. -I/home/roman/dev/box/accelsim/accel-sim-framework-dev/gpu-simulator/gpgpu-sim/build/gcc-8.4.0/cuda-10010/release -fPIC  -DTRACING_ON=1 -DCUDART_VERSION=10010 -std=c++0x instructions.cc -o /home/roman/dev/box/accelsim/accel-sim-framework-dev/gpu-simulator/gpgpu-sim/build/gcc-8.4.0/cuda-10010/release/cuda-sim/instructions.o
g++  -c -O3 -g3 -Wall -Wno-unused-function -Wno-sign-compare -I/usr/local/cuda/include  -I/home/roman/dev/box/accelsim/accel-sim-framework-dev/gpu-simulator/gpgpu-sim/build/gcc-8.4.0/cuda-10010/release/cuda-sim/ -I. -I/home/roman/dev/box/accelsim/accel-sim-framework-dev/gpu-simulator/gpgpu-sim/build/gcc-8.4.0/cuda-10010/release -fPIC  -DTRACING_ON=1 -DCUDART_VERSION=10010 -std=c++0x cuda-sim.cc -o /home/roman/dev/box/accelsim/accel-sim-framework-dev/gpu-simulator/gpgpu-sim/build/gcc-8.4.0/cuda-10010/release/cuda-sim/cuda-sim.o
g++  -c -O3 -g3 -Wall -Wno-unused-function -Wno-sign-compare -I/usr/local/cuda/include  -I/home/roman/dev/box/accelsim/accel-sim-framework-dev/gpu-simulator/gpgpu-sim/build/gcc-8.4.0/cuda-10010/release/cuda-sim/ -I. -I/home/roman/dev/box/accelsim/accel-sim-framework-dev/gpu-simulator/gpgpu-sim/build/gcc-8.4.0/cuda-10010/release -fPIC  -DTRACING_ON=1 -DCUDART_VERSION=10010 -std=c++0x ptx_ir.cc -o /home/roman/dev/box/accelsim/accel-sim-framework-dev/gpu-simulator/gpgpu-sim/build/gcc-8.4.0/cuda-10010/release/cuda-sim/ptx_ir.o
g++  -c -O3 -g3 -Wall -Wno-unused-function -Wno-sign-compare -I/usr/local/cuda/include  -I/home/roman/dev/box/accelsim/accel-sim-framework-dev/gpu-simulator/gpgpu-sim/build/gcc-8.4.0/cuda-10010/release/cuda-sim/ -I. -I/home/roman/dev/box/accelsim/accel-sim-framework-dev/gpu-simulator/gpgpu-sim/build/gcc-8.4.0/cuda-10010/release -fPIC  -DTRACING_ON=1 -DCUDART_VERSION=10010 -std=c++0x ptx_sim.cc -o /home/roman/dev/box/accelsim/accel-sim-framework-dev/gpu-simulator/gpgpu-sim/build/gcc-8.4.0/cuda-10010/release/cuda-sim/ptx_sim.o
g++  -c -O3 -g3 -Wall -Wno-unused-function -Wno-sign-compare -I/usr/local/cuda/include  -I/home/roman/dev/box/accelsim/accel-sim-framework-dev/gpu-simulator/gpgpu-sim/build/gcc-8.4.0/cuda-10010/release/cuda-sim/ -I. -I/home/roman/dev/box/accelsim/accel-sim-framework-dev/gpu-simulator/gpgpu-sim/build/gcc-8.4.0/cuda-10010/release -fPIC  -DTRACING_ON=1 -DCUDART_VERSION=10010 -std=c++0x ptx-stats.cc -o /home/roman/dev/box/accelsim/accel-sim-framework-dev/gpu-simulator/gpgpu-sim/build/gcc-8.4.0/cuda-10010/release/cuda-sim/ptx-stats.o
g++  -c -O3 -g3 -Wall -Wno-unused-function -Wno-sign-compare -I/usr/local/cuda/include  -I/home/roman/dev/box/accelsim/accel-sim-framework-dev/gpu-simulator/gpgpu-sim/build/gcc-8.4.0/cuda-10010/release/cuda-sim/ -I. -I/home/roman/dev/box/accelsim/accel-sim-framework-dev/gpu-simulator/gpgpu-sim/build/gcc-8.4.0/cuda-10010/release -fPIC  -DTRACING_ON=1 -DCUDART_VERSION=10010 -std=c++0x -DYYDEBUG /home/roman/dev/box/accelsim/accel-sim-framework-dev/gpu-simulator/gpgpu-sim/build/gcc-8.4.0/cuda-10010/release/cuda-sim/ptx.tab.c -o /home/roman/dev/box/accelsim/accel-sim-framework-dev/gpu-simulator/gpgpu-sim/build/gcc-8.4.0/cuda-10010/release/cuda-sim/ptx.tab.o
g++  -c -O3 -g3 -Wall -Wno-unused-function -Wno-sign-compare -I/usr/local/cuda/include  -I/home/roman/dev/box/accelsim/accel-sim-framework-dev/gpu-simulator/gpgpu-sim/build/gcc-8.4.0/cuda-10010/release/cuda-sim/ -I. -I/home/roman/dev/box/accelsim/accel-sim-framework-dev/gpu-simulator/gpgpu-sim/build/gcc-8.4.0/cuda-10010/release -fPIC  -DTRACING_ON=1 -DCUDART_VERSION=10010 -std=c++0x /home/roman/dev/box/accelsim/accel-sim-framework-dev/gpu-simulator/gpgpu-sim/build/gcc-8.4.0/cuda-10010/release/cuda-sim/lex.ptx_.c -o /home/roman/dev/box/accelsim/accel-sim-framework-dev/gpu-simulator/gpgpu-sim/build/gcc-8.4.0/cuda-10010/release/cuda-sim/lex.ptx_.o
g++  -c -O3 -g3 -Wall -Wno-unused-function -Wno-sign-compare -I/usr/local/cuda/include  -I/home/roman/dev/box/accelsim/accel-sim-framework-dev/gpu-simulator/gpgpu-sim/build/gcc-8.4.0/cuda-10010/release/cuda-sim/ -I. -I/home/roman/dev/box/accelsim/accel-sim-framework-dev/gpu-simulator/gpgpu-sim/build/gcc-8.4.0/cuda-10010/release -fPIC  -DTRACING_ON=1 -DCUDART_VERSION=10010 -std=c++0x -DYYDEBUG /home/roman/dev/box/accelsim/accel-sim-framework-dev/gpu-simulator/gpgpu-sim/build/gcc-8.4.0/cuda-10010/release/cuda-sim/ptxinfo.tab.c -o /home/roman/dev/box/accelsim/accel-sim-framework-dev/gpu-simulator/gpgpu-sim/build/gcc-8.4.0/cuda-10010/release/cuda-sim/ptxinfo.tab.o
g++  -c -O3 -g3 -Wall -Wno-unused-function -Wno-sign-compare -I/usr/local/cuda/include  -I/home/roman/dev/box/accelsim/accel-sim-framework-dev/gpu-simulator/gpgpu-sim/build/gcc-8.4.0/cuda-10010/release/cuda-sim/ -I. -I/home/roman/dev/box/accelsim/accel-sim-framework-dev/gpu-simulator/gpgpu-sim/build/gcc-8.4.0/cuda-10010/release -fPIC  -DTRACING_ON=1 -DCUDART_VERSION=10010 -std=c++0x /home/roman/dev/box/accelsim/accel-sim-framework-dev/gpu-simulator/gpgpu-sim/build/gcc-8.4.0/cuda-10010/release/cuda-sim/lex.ptxinfo_.c -o /home/roman/dev/box/accelsim/accel-sim-framework-dev/gpu-simulator/gpgpu-sim/build/gcc-8.4.0/cuda-10010/release/cuda-sim/lex.ptxinfo_.o
g++  -c -O3 -g3 -Wall -Wno-unused-function -Wno-sign-compare -I/usr/local/cuda/include  -I/home/roman/dev/box/accelsim/accel-sim-framework-dev/gpu-simulator/gpgpu-sim/build/gcc-8.4.0/cuda-10010/release/cuda-sim/ -I. -I/home/roman/dev/box/accelsim/accel-sim-framework-dev/gpu-simulator/gpgpu-sim/build/gcc-8.4.0/cuda-10010/release -fPIC  -DTRACING_ON=1 -DCUDART_VERSION=10010 -std=c++0x cuda_device_runtime.cc -o /home/roman/dev/box/accelsim/accel-sim-framework-dev/gpu-simulator/gpgpu-sim/build/gcc-8.4.0/cuda-10010/release/cuda-sim/cuda_device_runtime.o
g++  -c -O3 -g3 -Wall -Wno-unused-function -Wno-sign-compare -I/usr/local/cuda/include  -I/home/roman/dev/box/accelsim/accel-sim-framework-dev/gpu-simulator/gpgpu-sim/build/gcc-8.4.0/cuda-10010/release/cuda-sim/ -I. -I/home/roman/dev/box/accelsim/accel-sim-framework-dev/gpu-simulator/gpgpu-sim/build/gcc-8.4.0/cuda-10010/release -fPIC  -DTRACING_ON=1 -DCUDART_VERSION=10010 -std=c++0x ptx_parser.cc -o /home/roman/dev/box/accelsim/accel-sim-framework-dev/gpu-simulator/gpgpu-sim/build/gcc-8.4.0/cuda-10010/release/cuda-sim/ptx_parser.o
g++  -c -O3 -g3 -Wall -Wno-unused-function -Wno-sign-compare -I/usr/local/cuda/include  -I/home/roman/dev/box/accelsim/accel-sim-framework-dev/gpu-simulator/gpgpu-sim/build/gcc-8.4.0/cuda-10010/release/cuda-sim/ -I. -I/home/roman/dev/box/accelsim/accel-sim-framework-dev/gpu-simulator/gpgpu-sim/build/gcc-8.4.0/cuda-10010/release -fPIC  -DTRACING_ON=1 -DCUDART_VERSION=10010 -std=c++0x ptx_loader.cc -o /home/roman/dev/box/accelsim/accel-sim-framework-dev/gpu-simulator/gpgpu-sim/build/gcc-8.4.0/cuda-10010/release/cuda-sim/ptx_loader.o
make[1]: Leaving directory '/home/roman/dev/box/accelsim/accel-sim-framework-dev/gpu-simulator/trace-parser'
make[1]: Leaving directory '/home/roman/dev/box/accelsim/accel-sim-framework-dev/gpu-simulator/trace-driven'
ar rcs /home/roman/dev/box/accelsim/accel-sim-framework-dev/gpu-simulator/gpgpu-sim/build/gcc-8.4.0/cuda-10010/release/cuda-sim/libgpgpu_ptx_sim.a /home/roman/dev/box/accelsim/accel-sim-framework-dev/gpu-simulator/gpgpu-sim/build/gcc-8.4.0/cuda-10010/release/cuda-sim/ptx.tab.o /home/roman/dev/box/accelsim/accel-sim-framework-dev/gpu-simulator/gpgpu-sim/build/gcc-8.4.0/cuda-10010/release/cuda-sim/lex.ptx_.o /home/roman/dev/box/accelsim/accel-sim-framework-dev/gpu-simulator/gpgpu-sim/build/gcc-8.4.0/cuda-10010/release/cuda-sim/ptxinfo.tab.o /home/roman/dev/box/accelsim/accel-sim-framework-dev/gpu-simulator/gpgpu-sim/build/gcc-8.4.0/cuda-10010/release/cuda-sim/lex.ptxinfo_.o /home/roman/dev/box/accelsim/accel-sim-framework-dev/gpu-simulator/gpgpu-sim/build/gcc-8.4.0/cuda-10010/release/cuda-sim/ptx_parser.o /home/roman/dev/box/accelsim/accel-sim-framework-dev/gpu-simulator/gpgpu-sim/build/gcc-8.4.0/cuda-10010/release/cuda-sim/ptx_loader.o /home/roman/dev/box/accelsim/accel-sim-framework-dev/gpu-simulator/gpgpu-sim/build/gcc-8.4.0/cuda-10010/release/cuda-sim/cuda_device_printf.o /home/roman/dev/box/accelsim/accel-sim-framework-dev/gpu-simulator/gpgpu-sim/build/gcc-8.4.0/cuda-10010/release/cuda-sim/instructions.o /home/roman/dev/box/accelsim/accel-sim-framework-dev/gpu-simulator/gpgpu-sim/build/gcc-8.4.0/cuda-10010/release/cuda-sim/cuda-sim.o /home/roman/dev/box/accelsim/accel-sim-framework-dev/gpu-simulator/gpgpu-sim/build/gcc-8.4.0/cuda-10010/release/cuda-sim/ptx_ir.o /home/roman/dev/box/accelsim/accel-sim-framework-dev/gpu-simulator/gpgpu-sim/build/gcc-8.4.0/cuda-10010/release/cuda-sim/ptx_sim.o  /home/roman/dev/box/accelsim/accel-sim-framework-dev/gpu-simulator/gpgpu-sim/build/gcc-8.4.0/cuda-10010/release/cuda-sim/memory.o /home/roman/dev/box/accelsim/accel-sim-framework-dev/gpu-simulator/gpgpu-sim/build/gcc-8.4.0/cuda-10010/release/cuda-sim/ptx-stats.o /home/roman/dev/box/accelsim/accel-sim-framework-dev/gpu-simulator/gpgpu-sim/build/gcc-8.4.0/cuda-10010/release/cuda-sim/decuda_pred_table/decuda_pred_table.o /home/roman/dev/box/accelsim/accel-sim-framework-dev/gpu-simulator/gpgpu-sim/build/gcc-8.4.0/cuda-10010/release/cuda-sim/ptx.tab.o /home/roman/dev/box/accelsim/accel-sim-framework-dev/gpu-simulator/gpgpu-sim/build/gcc-8.4.0/cuda-10010/release/cuda-sim/lex.ptx_.o /home/roman/dev/box/accelsim/accel-sim-framework-dev/gpu-simulator/gpgpu-sim/build/gcc-8.4.0/cuda-10010/release/cuda-sim/ptxinfo.tab.o /home/roman/dev/box/accelsim/accel-sim-framework-dev/gpu-simulator/gpgpu-sim/build/gcc-8.4.0/cuda-10010/release/cuda-sim/lex.ptxinfo_.o /home/roman/dev/box/accelsim/accel-sim-framework-dev/gpu-simulator/gpgpu-sim/build/gcc-8.4.0/cuda-10010/release/cuda-sim/cuda_device_runtime.o
make[2]: Leaving directory '/home/roman/dev/box/accelsim/accel-sim-framework-dev/gpu-simulator/gpgpu-sim/src/cuda-sim'
make -C ./src/gpgpu-sim/ depend
make -C ./libcuda/ depend
make[2]: Entering directory '/home/roman/dev/box/accelsim/accel-sim-framework-dev/gpu-simulator/gpgpu-sim/src/gpgpu-sim'
make -C ./cuobjdump_to_ptxplus/ depend
make[2]: Entering directory '/home/roman/dev/box/accelsim/accel-sim-framework-dev/gpu-simulator/gpgpu-sim/libcuda'
make[2]: Entering directory '/home/roman/dev/box/accelsim/accel-sim-framework-dev/gpu-simulator/gpgpu-sim/cuobjdump_to_ptxplus'
touch /home/roman/dev/box/accelsim/accel-sim-framework-dev/gpu-simulator/gpgpu-sim/build/gcc-8.4.0/cuda-10010/release/cuobjdump_to_ptxplus/Makefile.makedepend
makedepend -f/home/roman/dev/box/accelsim/accel-sim-framework-dev/gpu-simulator/gpgpu-sim/build/gcc-8.4.0/cuda-10010/release/cuobjdump_to_ptxplus/Makefile.makedepend cuobjdumpInst.cc cuobjdumpInstList.cc cuobjdump_to_ptxplus.cc 2> /dev/null
make[2]: 'depend' is up to date.
make[2]: Leaving directory '/home/roman/dev/box/accelsim/accel-sim-framework-dev/gpu-simulator/gpgpu-sim/cuobjdump_to_ptxplus'
make -C ./cuobjdump_to_ptxplus/
make[2]: Entering directory '/home/roman/dev/box/accelsim/accel-sim-framework-dev/gpu-simulator/gpgpu-sim/cuobjdump_to_ptxplus'
g++ -ggdb -fPIC -Wall -Wno-unused-function -Wno-sign-compare  -I /home/roman/dev/box/accelsim/accel-sim-framework-dev/gpu-simulator/gpgpu-sim/build/gcc-8.4.0/cuda-10010/release/cuobjdump_to_ptxplus -I /home/roman/dev/box/accelsim/accel-sim-framework-dev/gpu-simulator/gpgpu-sim/build/gcc-8.4.0/cuda-10010/release/cuobjdump_to_ptxplus/../cuda-sim/ -I . -I ../src/cuda-sim/ -c -o /home/roman/dev/box/accelsim/accel-sim-framework-dev/gpu-simulator/gpgpu-sim/build/gcc-8.4.0/cuda-10010/release/cuobjdump_to_ptxplus/cuobjdumpInst.o cuobjdumpInst.cc
g++ -ggdb -fPIC -Wall -Wno-unused-function -Wno-sign-compare  -I /home/roman/dev/box/accelsim/accel-sim-framework-dev/gpu-simulator/gpgpu-sim/build/gcc-8.4.0/cuda-10010/release/cuobjdump_to_ptxplus -I /home/roman/dev/box/accelsim/accel-sim-framework-dev/gpu-simulator/gpgpu-sim/build/gcc-8.4.0/cuda-10010/release/cuobjdump_to_ptxplus/../cuda-sim/ -I . -I ../src/cuda-sim/ -c -o /home/roman/dev/box/accelsim/accel-sim-framework-dev/gpu-simulator/gpgpu-sim/build/gcc-8.4.0/cuda-10010/release/cuobjdump_to_ptxplus/cuobjdumpInstList.o cuobjdumpInstList.cc
g++ -ggdb -fPIC -Wall -Wno-unused-function -Wno-sign-compare  -I /home/roman/dev/box/accelsim/accel-sim-framework-dev/gpu-simulator/gpgpu-sim/build/gcc-8.4.0/cuda-10010/release/cuobjdump_to_ptxplus -I /home/roman/dev/box/accelsim/accel-sim-framework-dev/gpu-simulator/gpgpu-sim/build/gcc-8.4.0/cuda-10010/release/cuobjdump_to_ptxplus/../cuda-sim/ -I . -I ../src/cuda-sim/ -c -o /home/roman/dev/box/accelsim/accel-sim-framework-dev/gpu-simulator/gpgpu-sim/build/gcc-8.4.0/cuda-10010/release/cuobjdump_to_ptxplus/cuobjdump_to_ptxplus.o cuobjdump_to_ptxplus.cc
bison -t -d --report=all --verbose --name-prefix=ptx_ -v ptx.y  --file-prefix=/home/roman/dev/box/accelsim/accel-sim-framework-dev/gpu-simulator/gpgpu-sim/build/gcc-8.4.0/cuda-10010/release/cuobjdump_to_ptxplus/ptx
flex -B  -o/home/roman/dev/box/accelsim/accel-sim-framework-dev/gpu-simulator/gpgpu-sim/build/gcc-8.4.0/cuda-10010/release/cuobjdump_to_ptxplus/lex.ptx_.c ptx.l
bison -t -d --report=all --verbose -p sass_ -o/home/roman/dev/box/accelsim/accel-sim-framework-dev/gpu-simulator/gpgpu-sim/build/gcc-8.4.0/cuda-10010/release/cuobjdump_to_ptxplus/sass_parser.cc sass.y --file-prefix=/home/roman/dev/box/accelsim/accel-sim-framework-dev/gpu-simulator/gpgpu-sim/build/gcc-8.4.0/cuda-10010/release/cuobjdump_to_ptxplus//home/roman/dev/box/accelsim/accel-sim-framework-dev/gpu-simulator/gpgpu-sim/build/gcc-8.4.0/cuda-10010/release/cuobjdump_to_ptxplus/sass_parser.cc
bison -t -d --report=all --verbose -p elf_ -o/home/roman/dev/box/accelsim/accel-sim-framework-dev/gpu-simulator/gpgpu-sim/build/gcc-8.4.0/cuda-10010/release/cuobjdump_to_ptxplus/elf_parser.cc elf.y --file-prefix=/home/roman/dev/box/accelsim/accel-sim-framework-dev/gpu-simulator/gpgpu-sim/build/gcc-8.4.0/cuda-10010/release/cuobjdump_to_ptxplus//home/roman/dev/box/accelsim/accel-sim-framework-dev/gpu-simulator/gpgpu-sim/build/gcc-8.4.0/cuda-10010/release/cuobjdump_to_ptxplus/elf_parser.cc
bison -t -d --report=all --verbose -p header_ -o/home/roman/dev/box/accelsim/accel-sim-framework-dev/gpu-simulator/gpgpu-sim/build/gcc-8.4.0/cuda-10010/release/cuobjdump_to_ptxplus/header_parser.cc header.y --file-prefix=/home/roman/dev/box/accelsim/accel-sim-framework-dev/gpu-simulator/gpgpu-sim/build/gcc-8.4.0/cuda-10010/release/cuobjdump_to_ptxplus//home/roman/dev/box/accelsim/accel-sim-framework-dev/gpu-simulator/gpgpu-sim/build/gcc-8.4.0/cuda-10010/release/cuobjdump_to_ptxplus/header_parser.cc
touch /home/roman/dev/box/accelsim/accel-sim-framework-dev/gpu-simulator/gpgpu-sim/build/gcc-8.4.0/cuda-10010/release/libcuda/Makefile.makedepend
makedepend -f/home/roman/dev/box/accelsim/accel-sim-framework-dev/gpu-simulator/gpgpu-sim/build/gcc-8.4.0/cuda-10010/release/libcuda/Makefile.makedepend -p/home/roman/dev/box/accelsim/accel-sim-framework-dev/gpu-simulator/gpgpu-sim/build/gcc-8.4.0/cuda-10010/release/libcuda/ cuda_runtime_api.cc 2> /dev/null
touch /home/roman/dev/box/accelsim/accel-sim-framework-dev/gpu-simulator/gpgpu-sim/build/gcc-8.4.0/cuda-10010/release/gpgpu-sim/Makefile.makedepend
makedepend -f/home/roman/dev/box/accelsim/accel-sim-framework-dev/gpu-simulator/gpgpu-sim/build/gcc-8.4.0/cuda-10010/release/gpgpu-sim/Makefile.makedepend -p/home/roman/dev/box/accelsim/accel-sim-framework-dev/gpu-simulator/gpgpu-sim/build/gcc-8.4.0/cuda-10010/release/gpgpu-sim/ addrdec.cc dram.cc dram_sched.cc gpu-cache.cc gpu-misc.cc gpu-sim.cc hashing.cc histogram.cc icnt_wrapper.cc l2cache.cc local_interconnect.cc mem_fetch.cc mem_latency_stat.cc power_interface.cc power_stat.cc scoreboard.cc shader.cc singleton.cc stack.cc stat-tool.cc traffic_breakdown.cc visualizer.cc 2> /dev/null
make[2]: 'depend' is up to date.
make[2]: Leaving directory '/home/roman/dev/box/accelsim/accel-sim-framework-dev/gpu-simulator/gpgpu-sim/libcuda'
make -C ./libcuda/
make[2]: Entering directory '/home/roman/dev/box/accelsim/accel-sim-framework-dev/gpu-simulator/gpgpu-sim/libcuda'
g++ -ggdb -fPIC -Wall -Wno-unused-function -Wno-sign-compare  -I /home/roman/dev/box/accelsim/accel-sim-framework-dev/gpu-simulator/gpgpu-sim/build/gcc-8.4.0/cuda-10010/release/cuobjdump_to_ptxplus -I /home/roman/dev/box/accelsim/accel-sim-framework-dev/gpu-simulator/gpgpu-sim/build/gcc-8.4.0/cuda-10010/release/cuobjdump_to_ptxplus/../cuda-sim/ -I . -I ../src/cuda-sim/ -c -o /home/roman/dev/box/accelsim/accel-sim-framework-dev/gpu-simulator/gpgpu-sim/build/gcc-8.4.0/cuda-10010/release/cuobjdump_to_ptxplus/header_parser.o /home/roman/dev/box/accelsim/accel-sim-framework-dev/gpu-simulator/gpgpu-sim/build/gcc-8.4.0/cuda-10010/release/cuobjdump_to_ptxplus/header_parser.cc
:
flex -B  -P header_ -o/home/roman/dev/box/accelsim/accel-sim-framework-dev/gpu-simulator/gpgpu-sim/build/gcc-8.4.0/cuda-10010/release/cuobjdump_to_ptxplus/header_lexer.cc header.l
:
flex -B  -P elf_ -o/home/roman/dev/box/accelsim/accel-sim-framework-dev/gpu-simulator/gpgpu-sim/build/gcc-8.4.0/cuda-10010/release/cuobjdump_to_ptxplus/elf_lexer.cc elf.l
g++ -ggdb -fPIC -Wall -Wno-unused-function -Wno-sign-compare  -I /home/roman/dev/box/accelsim/accel-sim-framework-dev/gpu-simulator/gpgpu-sim/build/gcc-8.4.0/cuda-10010/release/cuobjdump_to_ptxplus -I /home/roman/dev/box/accelsim/accel-sim-framework-dev/gpu-simulator/gpgpu-sim/build/gcc-8.4.0/cuda-10010/release/cuobjdump_to_ptxplus/../cuda-sim/ -I . -I ../src/cuda-sim/ -c -o /home/roman/dev/box/accelsim/accel-sim-framework-dev/gpu-simulator/gpgpu-sim/build/gcc-8.4.0/cuda-10010/release/cuobjdump_to_ptxplus/elf_parser.o /home/roman/dev/box/accelsim/accel-sim-framework-dev/gpu-simulator/gpgpu-sim/build/gcc-8.4.0/cuda-10010/release/cuobjdump_to_ptxplus/elf_parser.cc
make[2]: 'depend' is up to date.
make[2]: Leaving directory '/home/roman/dev/box/accelsim/accel-sim-framework-dev/gpu-simulator/gpgpu-sim/src/gpgpu-sim'
make -C ./src/gpgpu-sim/
make[2]: Entering directory '/home/roman/dev/box/accelsim/accel-sim-framework-dev/gpu-simulator/gpgpu-sim/src/gpgpu-sim'
g++ -ggdb -fPIC -Wall -Wno-unused-function -Wno-sign-compare  -I /home/roman/dev/box/accelsim/accel-sim-framework-dev/gpu-simulator/gpgpu-sim/build/gcc-8.4.0/cuda-10010/release/cuobjdump_to_ptxplus -I /home/roman/dev/box/accelsim/accel-sim-framework-dev/gpu-simulator/gpgpu-sim/build/gcc-8.4.0/cuda-10010/release/cuobjdump_to_ptxplus/../cuda-sim/ -I . -I ../src/cuda-sim/ -c -o /home/roman/dev/box/accelsim/accel-sim-framework-dev/gpu-simulator/gpgpu-sim/build/gcc-8.4.0/cuda-10010/release/cuobjdump_to_ptxplus/elf_lexer.o /home/roman/dev/box/accelsim/accel-sim-framework-dev/gpu-simulator/gpgpu-sim/build/gcc-8.4.0/cuda-10010/release/cuobjdump_to_ptxplus/elf_lexer.cc
g++ -ggdb -fPIC -Wall -Wno-unused-function -Wno-sign-compare  -I /home/roman/dev/box/accelsim/accel-sim-framework-dev/gpu-simulator/gpgpu-sim/build/gcc-8.4.0/cuda-10010/release/cuobjdump_to_ptxplus -I /home/roman/dev/box/accelsim/accel-sim-framework-dev/gpu-simulator/gpgpu-sim/build/gcc-8.4.0/cuda-10010/release/cuobjdump_to_ptxplus/../cuda-sim/ -I . -I ../src/cuda-sim/ -c -o /home/roman/dev/box/accelsim/accel-sim-framework-dev/gpu-simulator/gpgpu-sim/build/gcc-8.4.0/cuda-10010/release/cuobjdump_to_ptxplus/header_lexer.o /home/roman/dev/box/accelsim/accel-sim-framework-dev/gpu-simulator/gpgpu-sim/build/gcc-8.4.0/cuda-10010/release/cuobjdump_to_ptxplus/header_lexer.cc
touch /home/roman/dev/box/accelsim/accel-sim-framework-dev/gpu-simulator/gpgpu-sim/build/gcc-8.4.0/cuda-10010/release/libcuda/Makefile.makedepend
makedepend -f/home/roman/dev/box/accelsim/accel-sim-framework-dev/gpu-simulator/gpgpu-sim/build/gcc-8.4.0/cuda-10010/release/libcuda/Makefile.makedepend -p/home/roman/dev/box/accelsim/accel-sim-framework-dev/gpu-simulator/gpgpu-sim/build/gcc-8.4.0/cuda-10010/release/libcuda/ cuda_runtime_api.cc 2> /dev/null
touch /home/roman/dev/box/accelsim/accel-sim-framework-dev/gpu-simulator/gpgpu-sim/build/gcc-8.4.0/cuda-10010/release/gpgpu-sim/Makefile.makedepend
makedepend -f/home/roman/dev/box/accelsim/accel-sim-framework-dev/gpu-simulator/gpgpu-sim/build/gcc-8.4.0/cuda-10010/release/gpgpu-sim/Makefile.makedepend -p/home/roman/dev/box/accelsim/accel-sim-framework-dev/gpu-simulator/gpgpu-sim/build/gcc-8.4.0/cuda-10010/release/gpgpu-sim/ addrdec.cc dram.cc dram_sched.cc gpu-cache.cc gpu-misc.cc gpu-sim.cc hashing.cc histogram.cc icnt_wrapper.cc l2cache.cc local_interconnect.cc mem_fetch.cc mem_latency_stat.cc power_interface.cc power_stat.cc scoreboard.cc shader.cc singleton.cc stack.cc stat-tool.cc traffic_breakdown.cc visualizer.cc 2> /dev/null
g++  -std=c++0x -O3 -g -Wall -Wno-unused-function -Wno-sign-compare -fPIC  -DCUDART_VERSION=10010 -I./ -I/home/roman/dev/box/accelsim/accel-sim-framework-dev/gpu-simulator/gpgpu-sim/build/gcc-8.4.0/cuda-10010/release/libcuda -I/usr/local/cuda/include  -c cuda_runtime_api.cc -o /home/roman/dev/box/accelsim/accel-sim-framework-dev/gpu-simulator/gpgpu-sim/build/gcc-8.4.0/cuda-10010/release/libcuda/cuda_runtime_api.o
bison -t -d -v --report=all -p cuobjdump_  -o/home/roman/dev/box/accelsim/accel-sim-framework-dev/gpu-simulator/gpgpu-sim/build/gcc-8.4.0/cuda-10010/release/libcuda/cuobjdump_parser.c cuobjdump.y --file-prefix=/home/roman/dev/box/accelsim/accel-sim-framework-dev/gpu-simulator/gpgpu-sim/build/gcc-8.4.0/cuda-10010/release/libcuda/cuobjdump
g++  -O3 -g3 -fPIC -DCUDART_VERSION=10010 -Wall -DTRACING_ON=1 -std=c++0x -I/usr/local/cuda/include -I/home/roman/dev/box/accelsim/accel-sim-framework-dev/gpu-simulator/gpgpu-sim/src/accelwattch/ -DGPGPUSIM_POWER_MODEL -o /home/roman/dev/box/accelsim/accel-sim-framework-dev/gpu-simulator/gpgpu-sim/build/gcc-8.4.0/cuda-10010/release/gpgpu-sim/addrdec.o -c addrdec.cc
g++  -O3 -g3 -fPIC -DCUDART_VERSION=10010 -Wall -DTRACING_ON=1 -std=c++0x -I/usr/local/cuda/include -I/home/roman/dev/box/accelsim/accel-sim-framework-dev/gpu-simulator/gpgpu-sim/src/accelwattch/ -DGPGPUSIM_POWER_MODEL -o /home/roman/dev/box/accelsim/accel-sim-framework-dev/gpu-simulator/gpgpu-sim/build/gcc-8.4.0/cuda-10010/release/gpgpu-sim/dram.o -c dram.cc
g++  -O3 -g3 -fPIC -DCUDART_VERSION=10010 -Wall -DTRACING_ON=1 -std=c++0x -I/usr/local/cuda/include -I/home/roman/dev/box/accelsim/accel-sim-framework-dev/gpu-simulator/gpgpu-sim/src/accelwattch/ -DGPGPUSIM_POWER_MODEL -o /home/roman/dev/box/accelsim/accel-sim-framework-dev/gpu-simulator/gpgpu-sim/build/gcc-8.4.0/cuda-10010/release/gpgpu-sim/dram_sched.o -c dram_sched.cc
g++  -O3 -g3 -fPIC -DCUDART_VERSION=10010 -Wall -DTRACING_ON=1 -std=c++0x -I/usr/local/cuda/include -I/home/roman/dev/box/accelsim/accel-sim-framework-dev/gpu-simulator/gpgpu-sim/src/accelwattch/ -DGPGPUSIM_POWER_MODEL -o /home/roman/dev/box/accelsim/accel-sim-framework-dev/gpu-simulator/gpgpu-sim/build/gcc-8.4.0/cuda-10010/release/gpgpu-sim/gpu-cache.o -c gpu-cache.cc
g++  -O3 -g3 -fPIC -DCUDART_VERSION=10010 -Wall -DTRACING_ON=1 -std=c++0x -I/usr/local/cuda/include -I/home/roman/dev/box/accelsim/accel-sim-framework-dev/gpu-simulator/gpgpu-sim/src/accelwattch/ -DGPGPUSIM_POWER_MODEL -o /home/roman/dev/box/accelsim/accel-sim-framework-dev/gpu-simulator/gpgpu-sim/build/gcc-8.4.0/cuda-10010/release/gpgpu-sim/gpu-misc.o -c gpu-misc.cc
g++  -O3 -g3 -fPIC -DCUDART_VERSION=10010 -Wall -DTRACING_ON=1 -std=c++0x -I/usr/local/cuda/include -I/home/roman/dev/box/accelsim/accel-sim-framework-dev/gpu-simulator/gpgpu-sim/src/accelwattch/ -DGPGPUSIM_POWER_MODEL -o /home/roman/dev/box/accelsim/accel-sim-framework-dev/gpu-simulator/gpgpu-sim/build/gcc-8.4.0/cuda-10010/release/gpgpu-sim/gpu-sim.o -c gpu-sim.cc
g++  -O3 -g3 -fPIC -DCUDART_VERSION=10010 -Wall -DTRACING_ON=1 -std=c++0x -I/usr/local/cuda/include -I/home/roman/dev/box/accelsim/accel-sim-framework-dev/gpu-simulator/gpgpu-sim/src/accelwattch/ -DGPGPUSIM_POWER_MODEL -o /home/roman/dev/box/accelsim/accel-sim-framework-dev/gpu-simulator/gpgpu-sim/build/gcc-8.4.0/cuda-10010/release/gpgpu-sim/hashing.o -c hashing.cc
g++  -O3 -g3 -fPIC -DCUDART_VERSION=10010 -Wall -DTRACING_ON=1 -std=c++0x -I/usr/local/cuda/include -I/home/roman/dev/box/accelsim/accel-sim-framework-dev/gpu-simulator/gpgpu-sim/src/accelwattch/ -DGPGPUSIM_POWER_MODEL -o /home/roman/dev/box/accelsim/accel-sim-framework-dev/gpu-simulator/gpgpu-sim/build/gcc-8.4.0/cuda-10010/release/gpgpu-sim/histogram.o -c histogram.cc
:
flex -B  -P cuobjdump_ -o/home/roman/dev/box/accelsim/accel-sim-framework-dev/gpu-simulator/gpgpu-sim/build/gcc-8.4.0/cuda-10010/release/libcuda/cuobjdump_lexer.c cuobjdump.l
g++  -Wall -Wno-unused-function -Wno-sign-compare -fPIC -I./ -I/home/roman/dev/box/accelsim/accel-sim-framework-dev/gpu-simulator/gpgpu-sim/build/gcc-8.4.0/cuda-10010/release/libcuda -I/usr/local/cuda/include  -c /home/roman/dev/box/accelsim/accel-sim-framework-dev/gpu-simulator/gpgpu-sim/build/gcc-8.4.0/cuda-10010/release/libcuda/cuobjdump_parser.c -o /home/roman/dev/box/accelsim/accel-sim-framework-dev/gpu-simulator/gpgpu-sim/build/gcc-8.4.0/cuda-10010/release/libcuda/cuobjdump_parser.o
g++  -O3 -g3 -fPIC -DCUDART_VERSION=10010 -Wall -DTRACING_ON=1 -std=c++0x -I/usr/local/cuda/include -I/home/roman/dev/box/accelsim/accel-sim-framework-dev/gpu-simulator/gpgpu-sim/src/accelwattch/ -DGPGPUSIM_POWER_MODEL -o /home/roman/dev/box/accelsim/accel-sim-framework-dev/gpu-simulator/gpgpu-sim/build/gcc-8.4.0/cuda-10010/release/gpgpu-sim/icnt_wrapper.o -c icnt_wrapper.cc
g++  -Wall -Wno-unused-function -Wno-sign-compare -fPIC -I./ -I/home/roman/dev/box/accelsim/accel-sim-framework-dev/gpu-simulator/gpgpu-sim/build/gcc-8.4.0/cuda-10010/release/libcuda -I/usr/local/cuda/include  -c /home/roman/dev/box/accelsim/accel-sim-framework-dev/gpu-simulator/gpgpu-sim/build/gcc-8.4.0/cuda-10010/release/libcuda/cuobjdump_lexer.c -o /home/roman/dev/box/accelsim/accel-sim-framework-dev/gpu-simulator/gpgpu-sim/build/gcc-8.4.0/cuda-10010/release/libcuda/cuobjdump_lexer.o
g++  -O3 -g3 -fPIC -DCUDART_VERSION=10010 -Wall -DTRACING_ON=1 -std=c++0x -I/usr/local/cuda/include -I/home/roman/dev/box/accelsim/accel-sim-framework-dev/gpu-simulator/gpgpu-sim/src/accelwattch/ -DGPGPUSIM_POWER_MODEL -o /home/roman/dev/box/accelsim/accel-sim-framework-dev/gpu-simulator/gpgpu-sim/build/gcc-8.4.0/cuda-10010/release/gpgpu-sim/l2cache.o -c l2cache.cc
g++  -O3 -g3 -fPIC -DCUDART_VERSION=10010 -Wall -DTRACING_ON=1 -std=c++0x -I/usr/local/cuda/include -I/home/roman/dev/box/accelsim/accel-sim-framework-dev/gpu-simulator/gpgpu-sim/src/accelwattch/ -DGPGPUSIM_POWER_MODEL -o /home/roman/dev/box/accelsim/accel-sim-framework-dev/gpu-simulator/gpgpu-sim/build/gcc-8.4.0/cuda-10010/release/gpgpu-sim/local_interconnect.o -c local_interconnect.cc
g++  -O3 -g3 -fPIC -DCUDART_VERSION=10010 -Wall -DTRACING_ON=1 -std=c++0x -I/usr/local/cuda/include -I/home/roman/dev/box/accelsim/accel-sim-framework-dev/gpu-simulator/gpgpu-sim/src/accelwattch/ -DGPGPUSIM_POWER_MODEL -o /home/roman/dev/box/accelsim/accel-sim-framework-dev/gpu-simulator/gpgpu-sim/build/gcc-8.4.0/cuda-10010/release/gpgpu-sim/mem_fetch.o -c mem_fetch.cc
g++  -O3 -g3 -fPIC -DCUDART_VERSION=10010 -Wall -DTRACING_ON=1 -std=c++0x -I/usr/local/cuda/include -I/home/roman/dev/box/accelsim/accel-sim-framework-dev/gpu-simulator/gpgpu-sim/src/accelwattch/ -DGPGPUSIM_POWER_MODEL -o /home/roman/dev/box/accelsim/accel-sim-framework-dev/gpu-simulator/gpgpu-sim/build/gcc-8.4.0/cuda-10010/release/gpgpu-sim/mem_latency_stat.o -c mem_latency_stat.cc
g++  -O3 -g3 -fPIC -DCUDART_VERSION=10010 -Wall -DTRACING_ON=1 -std=c++0x -I/usr/local/cuda/include -I/home/roman/dev/box/accelsim/accel-sim-framework-dev/gpu-simulator/gpgpu-sim/src/accelwattch/ -DGPGPUSIM_POWER_MODEL -o /home/roman/dev/box/accelsim/accel-sim-framework-dev/gpu-simulator/gpgpu-sim/build/gcc-8.4.0/cuda-10010/release/gpgpu-sim/power_interface.o -c power_interface.cc
:
flex -B  -P sass_ -o/home/roman/dev/box/accelsim/accel-sim-framework-dev/gpu-simulator/gpgpu-sim/build/gcc-8.4.0/cuda-10010/release/cuobjdump_to_ptxplus/sass_lexer.cc sass.l
g++ -ggdb -fPIC -Wall -Wno-unused-function -Wno-sign-compare  -I /home/roman/dev/box/accelsim/accel-sim-framework-dev/gpu-simulator/gpgpu-sim/build/gcc-8.4.0/cuda-10010/release/cuobjdump_to_ptxplus -I /home/roman/dev/box/accelsim/accel-sim-framework-dev/gpu-simulator/gpgpu-sim/build/gcc-8.4.0/cuda-10010/release/cuobjdump_to_ptxplus/../cuda-sim/ -I . -I ../src/cuda-sim/ -c -o /home/roman/dev/box/accelsim/accel-sim-framework-dev/gpu-simulator/gpgpu-sim/build/gcc-8.4.0/cuda-10010/release/cuobjdump_to_ptxplus/sass_parser.o /home/roman/dev/box/accelsim/accel-sim-framework-dev/gpu-simulator/gpgpu-sim/build/gcc-8.4.0/cuda-10010/release/cuobjdump_to_ptxplus/sass_parser.cc
g++  -O3 -g3 -fPIC -DCUDART_VERSION=10010 -Wall -DTRACING_ON=1 -std=c++0x -I/usr/local/cuda/include -I/home/roman/dev/box/accelsim/accel-sim-framework-dev/gpu-simulator/gpgpu-sim/src/accelwattch/ -DGPGPUSIM_POWER_MODEL -o /home/roman/dev/box/accelsim/accel-sim-framework-dev/gpu-simulator/gpgpu-sim/build/gcc-8.4.0/cuda-10010/release/gpgpu-sim/power_stat.o -c power_stat.cc
g++ -ggdb -fPIC -Wall -Wno-unused-function -Wno-sign-compare  -I /home/roman/dev/box/accelsim/accel-sim-framework-dev/gpu-simulator/gpgpu-sim/build/gcc-8.4.0/cuda-10010/release/cuobjdump_to_ptxplus -I /home/roman/dev/box/accelsim/accel-sim-framework-dev/gpu-simulator/gpgpu-sim/build/gcc-8.4.0/cuda-10010/release/cuobjdump_to_ptxplus/../cuda-sim/ -I . -I ../src/cuda-sim/ -c /home/roman/dev/box/accelsim/accel-sim-framework-dev/gpu-simulator/gpgpu-sim/build/gcc-8.4.0/cuda-10010/release/cuobjdump_to_ptxplus/ptx.tab.c -o /home/roman/dev/box/accelsim/accel-sim-framework-dev/gpu-simulator/gpgpu-sim/build/gcc-8.4.0/cuda-10010/release/cuobjdump_to_ptxplus/ptx.tab.o
g++  -O3 -g3 -fPIC -DCUDART_VERSION=10010 -Wall -DTRACING_ON=1 -std=c++0x -I/usr/local/cuda/include -I/home/roman/dev/box/accelsim/accel-sim-framework-dev/gpu-simulator/gpgpu-sim/src/accelwattch/ -DGPGPUSIM_POWER_MODEL -o /home/roman/dev/box/accelsim/accel-sim-framework-dev/gpu-simulator/gpgpu-sim/build/gcc-8.4.0/cuda-10010/release/gpgpu-sim/scoreboard.o -c scoreboard.cc
g++ -ggdb -fPIC -Wall -Wno-unused-function -Wno-sign-compare  -I /home/roman/dev/box/accelsim/accel-sim-framework-dev/gpu-simulator/gpgpu-sim/build/gcc-8.4.0/cuda-10010/release/cuobjdump_to_ptxplus -I /home/roman/dev/box/accelsim/accel-sim-framework-dev/gpu-simulator/gpgpu-sim/build/gcc-8.4.0/cuda-10010/release/cuobjdump_to_ptxplus/../cuda-sim/ -I . -I ../src/cuda-sim/ -c /home/roman/dev/box/accelsim/accel-sim-framework-dev/gpu-simulator/gpgpu-sim/build/gcc-8.4.0/cuda-10010/release/cuobjdump_to_ptxplus/lex.ptx_.c -o /home/roman/dev/box/accelsim/accel-sim-framework-dev/gpu-simulator/gpgpu-sim/build/gcc-8.4.0/cuda-10010/release/cuobjdump_to_ptxplus/lex.ptx_.o
g++  -O3 -g3 -fPIC -DCUDART_VERSION=10010 -Wall -DTRACING_ON=1 -std=c++0x -I/usr/local/cuda/include -I/home/roman/dev/box/accelsim/accel-sim-framework-dev/gpu-simulator/gpgpu-sim/src/accelwattch/ -DGPGPUSIM_POWER_MODEL -o /home/roman/dev/box/accelsim/accel-sim-framework-dev/gpu-simulator/gpgpu-sim/build/gcc-8.4.0/cuda-10010/release/gpgpu-sim/shader.o -c shader.cc
g++ -ggdb -fPIC -Wall -Wno-unused-function -Wno-sign-compare  -I /home/roman/dev/box/accelsim/accel-sim-framework-dev/gpu-simulator/gpgpu-sim/build/gcc-8.4.0/cuda-10010/release/cuobjdump_to_ptxplus -I /home/roman/dev/box/accelsim/accel-sim-framework-dev/gpu-simulator/gpgpu-sim/build/gcc-8.4.0/cuda-10010/release/cuobjdump_to_ptxplus/../cuda-sim/ -I . -I ../src/cuda-sim/ -c -o /home/roman/dev/box/accelsim/accel-sim-framework-dev/gpu-simulator/gpgpu-sim/build/gcc-8.4.0/cuda-10010/release/cuobjdump_to_ptxplus/sass_lexer.o /home/roman/dev/box/accelsim/accel-sim-framework-dev/gpu-simulator/gpgpu-sim/build/gcc-8.4.0/cuda-10010/release/cuobjdump_to_ptxplus/sass_lexer.cc
g++  -O3 -g3 -fPIC -DCUDART_VERSION=10010 -Wall -DTRACING_ON=1 -std=c++0x -I/usr/local/cuda/include -I/home/roman/dev/box/accelsim/accel-sim-framework-dev/gpu-simulator/gpgpu-sim/src/accelwattch/ -DGPGPUSIM_POWER_MODEL -o /home/roman/dev/box/accelsim/accel-sim-framework-dev/gpu-simulator/gpgpu-sim/build/gcc-8.4.0/cuda-10010/release/gpgpu-sim/singleton.o -c singleton.cc
g++  -O3 -g3 -fPIC -DCUDART_VERSION=10010 -Wall -DTRACING_ON=1 -std=c++0x -I/usr/local/cuda/include -I/home/roman/dev/box/accelsim/accel-sim-framework-dev/gpu-simulator/gpgpu-sim/src/accelwattch/ -DGPGPUSIM_POWER_MODEL -o /home/roman/dev/box/accelsim/accel-sim-framework-dev/gpu-simulator/gpgpu-sim/build/gcc-8.4.0/cuda-10010/release/gpgpu-sim/stack.o -c stack.cc
g++  -O3 -g3 -fPIC -DCUDART_VERSION=10010 -Wall -DTRACING_ON=1 -std=c++0x -I/usr/local/cuda/include -I/home/roman/dev/box/accelsim/accel-sim-framework-dev/gpu-simulator/gpgpu-sim/src/accelwattch/ -DGPGPUSIM_POWER_MODEL -o /home/roman/dev/box/accelsim/accel-sim-framework-dev/gpu-simulator/gpgpu-sim/build/gcc-8.4.0/cuda-10010/release/gpgpu-sim/stat-tool.o -c stat-tool.cc
g++  -O3 -g3 -fPIC -DCUDART_VERSION=10010 -Wall -DTRACING_ON=1 -std=c++0x -I/usr/local/cuda/include -I/home/roman/dev/box/accelsim/accel-sim-framework-dev/gpu-simulator/gpgpu-sim/src/accelwattch/ -DGPGPUSIM_POWER_MODEL -o /home/roman/dev/box/accelsim/accel-sim-framework-dev/gpu-simulator/gpgpu-sim/build/gcc-8.4.0/cuda-10010/release/gpgpu-sim/traffic_breakdown.o -c traffic_breakdown.cc
g++  -O3 -g3 -fPIC -DCUDART_VERSION=10010 -Wall -DTRACING_ON=1 -std=c++0x -I/usr/local/cuda/include -I/home/roman/dev/box/accelsim/accel-sim-framework-dev/gpu-simulator/gpgpu-sim/src/accelwattch/ -DGPGPUSIM_POWER_MODEL -o /home/roman/dev/box/accelsim/accel-sim-framework-dev/gpu-simulator/gpgpu-sim/build/gcc-8.4.0/cuda-10010/release/gpgpu-sim/visualizer.o -c visualizer.cc
g++ -ggdb -fPIC -Wall -Wno-unused-function -Wno-sign-compare  -o /home/roman/dev/box/accelsim/accel-sim-framework-dev/gpu-simulator/gpgpu-sim/build/gcc-8.4.0/cuda-10010/release/cuobjdump_to_ptxplus/cuobjdump_to_ptxplus /home/roman/dev/box/accelsim/accel-sim-framework-dev/gpu-simulator/gpgpu-sim/build/gcc-8.4.0/cuda-10010/release/cuobjdump_to_ptxplus/cuobjdumpInst.o /home/roman/dev/box/accelsim/accel-sim-framework-dev/gpu-simulator/gpgpu-sim/build/gcc-8.4.0/cuda-10010/release/cuobjdump_to_ptxplus/cuobjdumpInstList.o /home/roman/dev/box/accelsim/accel-sim-framework-dev/gpu-simulator/gpgpu-sim/build/gcc-8.4.0/cuda-10010/release/cuobjdump_to_ptxplus/cuobjdump_to_ptxplus.o /home/roman/dev/box/accelsim/accel-sim-framework-dev/gpu-simulator/gpgpu-sim/build/gcc-8.4.0/cuda-10010/release/cuobjdump_to_ptxplus/ptx.tab.o /home/roman/dev/box/accelsim/accel-sim-framework-dev/gpu-simulator/gpgpu-sim/build/gcc-8.4.0/cuda-10010/release/cuobjdump_to_ptxplus/lex.ptx_.o /home/roman/dev/box/accelsim/accel-sim-framework-dev/gpu-simulator/gpgpu-sim/build/gcc-8.4.0/cuda-10010/release/cuobjdump_to_ptxplus/sass_lexer.o /home/roman/dev/box/accelsim/accel-sim-framework-dev/gpu-simulator/gpgpu-sim/build/gcc-8.4.0/cuda-10010/release/cuobjdump_to_ptxplus/sass_parser.o  /home/roman/dev/box/accelsim/accel-sim-framework-dev/gpu-simulator/gpgpu-sim/build/gcc-8.4.0/cuda-10010/release/cuobjdump_to_ptxplus/elf_lexer.o /home/roman/dev/box/accelsim/accel-sim-framework-dev/gpu-simulator/gpgpu-sim/build/gcc-8.4.0/cuda-10010/release/cuobjdump_to_ptxplus/elf_parser.o /home/roman/dev/box/accelsim/accel-sim-framework-dev/gpu-simulator/gpgpu-sim/build/gcc-8.4.0/cuda-10010/release/cuobjdump_to_ptxplus/header_parser.o /home/roman/dev/box/accelsim/accel-sim-framework-dev/gpu-simulator/gpgpu-sim/build/gcc-8.4.0/cuda-10010/release/cuobjdump_to_ptxplus/header_lexer.o
make[2]: Leaving directory '/home/roman/dev/box/accelsim/accel-sim-framework-dev/gpu-simulator/gpgpu-sim/cuobjdump_to_ptxplus'
g++ -m64 /home/roman/dev/box/accelsim/accel-sim-framework-dev/gpu-simulator/gpgpu-sim/build/gcc-8.4.0/cuda-10010/release/accelwattch/Ucache.o /home/roman/dev/box/accelsim/accel-sim-framework-dev/gpu-simulator/gpgpu-sim/build/gcc-8.4.0/cuda-10010/release/accelwattch/XML_Parse.o /home/roman/dev/box/accelsim/accel-sim-framework-dev/gpu-simulator/gpgpu-sim/build/gcc-8.4.0/cuda-10010/release/accelwattch/arbiter.o /home/roman/dev/box/accelsim/accel-sim-framework-dev/gpu-simulator/gpgpu-sim/build/gcc-8.4.0/cuda-10010/release/accelwattch/area.o /home/roman/dev/box/accelsim/accel-sim-framework-dev/gpu-simulator/gpgpu-sim/build/gcc-8.4.0/cuda-10010/release/accelwattch/array.o /home/roman/dev/box/accelsim/accel-sim-framework-dev/gpu-simulator/gpgpu-sim/build/gcc-8.4.0/cuda-10010/release/accelwattch/bank.o /home/roman/dev/box/accelsim/accel-sim-framework-dev/gpu-simulator/gpgpu-sim/build/gcc-8.4.0/cuda-10010/release/accelwattch/basic_circuit.o /home/roman/dev/box/accelsim/accel-sim-framework-dev/gpu-simulator/gpgpu-sim/build/gcc-8.4.0/cuda-10010/release/accelwattch/basic_components.o /home/roman/dev/box/accelsim/accel-sim-framework-dev/gpu-simulator/gpgpu-sim/build/gcc-8.4.0/cuda-10010/release/accelwattch/cacti_interface.o /home/roman/dev/box/accelsim/accel-sim-framework-dev/gpu-simulator/gpgpu-sim/build/gcc-8.4.0/cuda-10010/release/accelwattch/component.o /home/roman/dev/box/accelsim/accel-sim-framework-dev/gpu-simulator/gpgpu-sim/build/gcc-8.4.0/cuda-10010/release/accelwattch/core.o /home/roman/dev/box/accelsim/accel-sim-framework-dev/gpu-simulator/gpgpu-sim/build/gcc-8.4.0/cuda-10010/release/accelwattch/crossbar.o /home/roman/dev/box/accelsim/accel-sim-framework-dev/gpu-simulator/gpgpu-sim/build/gcc-8.4.0/cuda-10010/release/accelwattch/decoder.o /home/roman/dev/box/accelsim/accel-sim-framework-dev/gpu-simulator/gpgpu-sim/build/gcc-8.4.0/cuda-10010/release/accelwattch/htree2.o /home/roman/dev/box/accelsim/accel-sim-framework-dev/gpu-simulator/gpgpu-sim/build/gcc-8.4.0/cuda-10010/release/accelwattch/interconnect.o /home/roman/dev/box/accelsim/accel-sim-framework-dev/gpu-simulator/gpgpu-sim/build/gcc-8.4.0/cuda-10010/release/accelwattch/io.o /home/roman/dev/box/accelsim/accel-sim-framework-dev/gpu-simulator/gpgpu-sim/build/gcc-8.4.0/cuda-10010/release/accelwattch/iocontrollers.o /home/roman/dev/box/accelsim/accel-sim-framework-dev/gpu-simulator/gpgpu-sim/build/gcc-8.4.0/cuda-10010/release/accelwattch/logic.o /home/roman/dev/box/accelsim/accel-sim-framework-dev/gpu-simulator/gpgpu-sim/build/gcc-8.4.0/cuda-10010/release/accelwattch/main.o /home/roman/dev/box/accelsim/accel-sim-framework-dev/gpu-simulator/gpgpu-sim/build/gcc-8.4.0/cuda-10010/release/accelwattch/mat.o /home/roman/dev/box/accelsim/accel-sim-framework-dev/gpu-simulator/gpgpu-sim/build/gcc-8.4.0/cuda-10010/release/accelwattch/memoryctrl.o /home/roman/dev/box/accelsim/accel-sim-framework-dev/gpu-simulator/gpgpu-sim/build/gcc-8.4.0/cuda-10010/release/accelwattch/noc.o /home/roman/dev/box/accelsim/accel-sim-framework-dev/gpu-simulator/gpgpu-sim/build/gcc-8.4.0/cuda-10010/release/accelwattch/nuca.o /home/roman/dev/box/accelsim/accel-sim-framework-dev/gpu-simulator/gpgpu-sim/build/gcc-8.4.0/cuda-10010/release/accelwattch/parameter.o /home/roman/dev/box/accelsim/accel-sim-framework-dev/gpu-simulator/gpgpu-sim/build/gcc-8.4.0/cuda-10010/release/accelwattch/processor.o /home/roman/dev/box/accelsim/accel-sim-framework-dev/gpu-simulator/gpgpu-sim/build/gcc-8.4.0/cuda-10010/release/accelwattch/router.o /home/roman/dev/box/accelsim/accel-sim-framework-dev/gpu-simulator/gpgpu-sim/build/gcc-8.4.0/cuda-10010/release/accelwattch/sharedcache.o /home/roman/dev/box/accelsim/accel-sim-framework-dev/gpu-simulator/gpgpu-sim/build/gcc-8.4.0/cuda-10010/release/accelwattch/subarray.o /home/roman/dev/box/accelsim/accel-sim-framework-dev/gpu-simulator/gpgpu-sim/build/gcc-8.4.0/cuda-10010/release/accelwattch/technology.o /home/roman/dev/box/accelsim/accel-sim-framework-dev/gpu-simulator/gpgpu-sim/build/gcc-8.4.0/cuda-10010/release/accelwattch/uca.o /home/roman/dev/box/accelsim/accel-sim-framework-dev/gpu-simulator/gpgpu-sim/build/gcc-8.4.0/cuda-10010/release/accelwattch/wire.o /home/roman/dev/box/accelsim/accel-sim-framework-dev/gpu-simulator/gpgpu-sim/build/gcc-8.4.0/cuda-10010/release/accelwattch/xmlParser.o /home/roman/dev/box/accelsim/accel-sim-framework-dev/gpu-simulator/gpgpu-sim/build/gcc-8.4.0/cuda-10010/release/accelwattch/gpgpu_sim_wrapper.o -o /home/roman/dev/box/accelsim/accel-sim-framework-dev/gpu-simulator/gpgpu-sim/build/gcc-8.4.0/cuda-10010/release/accelwattch/mcpat -lm -Wno-unknown-pragmas  -O3 -fPIC -msse2 -mfpmath=sse -DNTHREADS=4 -Icacti -lz  -I/usr/lib/ -I/usr/lib64/ -pthread
make[3]: Leaving directory '/home/roman/dev/box/accelsim/accel-sim-framework-dev/gpu-simulator/gpgpu-sim/src/accelwattch'
make[2]: Leaving directory '/home/roman/dev/box/accelsim/accel-sim-framework-dev/gpu-simulator/gpgpu-sim/src/accelwattch'
echo /home/roman/dev/box/accelsim/accel-sim-framework-dev/gpu-simulator/gpgpu-sim/build/gcc-8.4.0/cuda-10010/release/libcuda/cuda_runtime_api.o /home/roman/dev/box/accelsim/accel-sim-framework-dev/gpu-simulator/gpgpu-sim/build/gcc-8.4.0/cuda-10010/release/libcuda/cuobjdump_lexer.o /home/roman/dev/box/accelsim/accel-sim-framework-dev/gpu-simulator/gpgpu-sim/build/gcc-8.4.0/cuda-10010/release/libcuda/cuobjdump_parser.o
/home/roman/dev/box/accelsim/accel-sim-framework-dev/gpu-simulator/gpgpu-sim/build/gcc-8.4.0/cuda-10010/release/libcuda/cuda_runtime_api.o /home/roman/dev/box/accelsim/accel-sim-framework-dev/gpu-simulator/gpgpu-sim/build/gcc-8.4.0/cuda-10010/release/libcuda/cuobjdump_lexer.o /home/roman/dev/box/accelsim/accel-sim-framework-dev/gpu-simulator/gpgpu-sim/build/gcc-8.4.0/cuda-10010/release/libcuda/cuobjdump_parser.o
ar rcs /home/roman/dev/box/accelsim/accel-sim-framework-dev/gpu-simulator/gpgpu-sim/build/gcc-8.4.0/cuda-10010/release/libcuda/libcuda.a /home/roman/dev/box/accelsim/accel-sim-framework-dev/gpu-simulator/gpgpu-sim/build/gcc-8.4.0/cuda-10010/release/libcuda/cuda_runtime_api.o /home/roman/dev/box/accelsim/accel-sim-framework-dev/gpu-simulator/gpgpu-sim/build/gcc-8.4.0/cuda-10010/release/libcuda/cuobjdump_lexer.o /home/roman/dev/box/accelsim/accel-sim-framework-dev/gpu-simulator/gpgpu-sim/build/gcc-8.4.0/cuda-10010/release/libcuda/cuobjdump_parser.o
make[2]: Leaving directory '/home/roman/dev/box/accelsim/accel-sim-framework-dev/gpu-simulator/gpgpu-sim/libcuda'
ar rcs  /home/roman/dev/box/accelsim/accel-sim-framework-dev/gpu-simulator/gpgpu-sim/build/gcc-8.4.0/cuda-10010/release/gpgpu-sim/libgpu_uarch_sim.a /home/roman/dev/box/accelsim/accel-sim-framework-dev/gpu-simulator/gpgpu-sim/build/gcc-8.4.0/cuda-10010/release/gpgpu-sim/addrdec.o /home/roman/dev/box/accelsim/accel-sim-framework-dev/gpu-simulator/gpgpu-sim/build/gcc-8.4.0/cuda-10010/release/gpgpu-sim/dram.o /home/roman/dev/box/accelsim/accel-sim-framework-dev/gpu-simulator/gpgpu-sim/build/gcc-8.4.0/cuda-10010/release/gpgpu-sim/dram_sched.o /home/roman/dev/box/accelsim/accel-sim-framework-dev/gpu-simulator/gpgpu-sim/build/gcc-8.4.0/cuda-10010/release/gpgpu-sim/gpu-cache.o /home/roman/dev/box/accelsim/accel-sim-framework-dev/gpu-simulator/gpgpu-sim/build/gcc-8.4.0/cuda-10010/release/gpgpu-sim/gpu-misc.o /home/roman/dev/box/accelsim/accel-sim-framework-dev/gpu-simulator/gpgpu-sim/build/gcc-8.4.0/cuda-10010/release/gpgpu-sim/gpu-sim.o /home/roman/dev/box/accelsim/accel-sim-framework-dev/gpu-simulator/gpgpu-sim/build/gcc-8.4.0/cuda-10010/release/gpgpu-sim/hashing.o /home/roman/dev/box/accelsim/accel-sim-framework-dev/gpu-simulator/gpgpu-sim/build/gcc-8.4.0/cuda-10010/release/gpgpu-sim/histogram.o /home/roman/dev/box/accelsim/accel-sim-framework-dev/gpu-simulator/gpgpu-sim/build/gcc-8.4.0/cuda-10010/release/gpgpu-sim/icnt_wrapper.o /home/roman/dev/box/accelsim/accel-sim-framework-dev/gpu-simulator/gpgpu-sim/build/gcc-8.4.0/cuda-10010/release/gpgpu-sim/l2cache.o /home/roman/dev/box/accelsim/accel-sim-framework-dev/gpu-simulator/gpgpu-sim/build/gcc-8.4.0/cuda-10010/release/gpgpu-sim/local_interconnect.o /home/roman/dev/box/accelsim/accel-sim-framework-dev/gpu-simulator/gpgpu-sim/build/gcc-8.4.0/cuda-10010/release/gpgpu-sim/mem_fetch.o /home/roman/dev/box/accelsim/accel-sim-framework-dev/gpu-simulator/gpgpu-sim/build/gcc-8.4.0/cuda-10010/release/gpgpu-sim/mem_latency_stat.o /home/roman/dev/box/accelsim/accel-sim-framework-dev/gpu-simulator/gpgpu-sim/build/gcc-8.4.0/cuda-10010/release/gpgpu-sim/power_interface.o /home/roman/dev/box/accelsim/accel-sim-framework-dev/gpu-simulator/gpgpu-sim/build/gcc-8.4.0/cuda-10010/release/gpgpu-sim/power_stat.o /home/roman/dev/box/accelsim/accel-sim-framework-dev/gpu-simulator/gpgpu-sim/build/gcc-8.4.0/cuda-10010/release/gpgpu-sim/scoreboard.o /home/roman/dev/box/accelsim/accel-sim-framework-dev/gpu-simulator/gpgpu-sim/build/gcc-8.4.0/cuda-10010/release/gpgpu-sim/shader.o /home/roman/dev/box/accelsim/accel-sim-framework-dev/gpu-simulator/gpgpu-sim/build/gcc-8.4.0/cuda-10010/release/gpgpu-sim/singleton.o /home/roman/dev/box/accelsim/accel-sim-framework-dev/gpu-simulator/gpgpu-sim/build/gcc-8.4.0/cuda-10010/release/gpgpu-sim/stack.o /home/roman/dev/box/accelsim/accel-sim-framework-dev/gpu-simulator/gpgpu-sim/build/gcc-8.4.0/cuda-10010/release/gpgpu-sim/stat-tool.o /home/roman/dev/box/accelsim/accel-sim-framework-dev/gpu-simulator/gpgpu-sim/build/gcc-8.4.0/cuda-10010/release/gpgpu-sim/traffic_breakdown.o /home/roman/dev/box/accelsim/accel-sim-framework-dev/gpu-simulator/gpgpu-sim/build/gcc-8.4.0/cuda-10010/release/gpgpu-sim/visualizer.o
make[2]: Leaving directory '/home/roman/dev/box/accelsim/accel-sim-framework-dev/gpu-simulator/gpgpu-sim/src/gpgpu-sim'
make "CREATE_LIBRARY=1" "DEBUG=0" -C ./src/intersim2
make[2]: Entering directory '/home/roman/dev/box/accelsim/accel-sim-framework-dev/gpu-simulator/gpgpu-sim/src/intersim2'
touch /home/roman/dev/box/accelsim/accel-sim-framework-dev/gpu-simulator/gpgpu-sim/build/gcc-8.4.0/cuda-10010/release/intersim2/Makefile.makedepend
makedepend -f/home/roman/dev/box/accelsim/accel-sim-framework-dev/gpu-simulator/gpgpu-sim/build/gcc-8.4.0/cuda-10010/release/intersim2/Makefile.makedepend -I-I. -Iarbiters -Iallocators -Irouters -Inetworks -Ipower -I/home/roman/dev/box/accelsim/accel-sim-framework-dev/gpu-simulator/gpgpu-sim/src -I/home/roman/dev/box/accelsim/accel-sim-framework-dev/gpu-simulator/gpgpu-sim/src/gpgpu-sim/ -p/home/roman/dev/box/accelsim/accel-sim-framework-dev/gpu-simulator/gpgpu-sim/build/gcc-8.4.0/cuda-10010/release/intersim2/ config_utils.cpp booksim_config.cpp module.cpp buffer.cpp vc.cpp routefunc.cpp traffic.cpp flitchannel.cpp trafficmanager.cpp batchtrafficmanager.cpp packet_reply_info.cpp buffer_state.cpp stats.cpp credit.cpp outputset.cpp flit.cpp injection.cpp misc_utils.cpp rng_wrapper.cpp rng_double_wrapper.cpp power_module.cpp switch_monitor.cpp buffer_monitor.cpp main.cpp gputrafficmanager.cpp intersim_config.cpp interconnect_interface.cpp allocators/allocator.cpp allocators/islip.cpp allocators/loa.cpp allocators/maxsize.cpp allocators/pim.cpp allocators/selalloc.cpp allocators/separable.cpp allocators/separable_input_first.cpp allocators/separable_output_first.cpp allocators/wavefront.cpp arbiters/arbiter.cpp arbiters/matrix_arb.cpp arbiters/prio_arb.cpp arbiters/roundrobin_arb.cpp arbiters/tree_arb.cpp networks/anynet.cpp networks/cmesh.cpp networks/dragonfly.cpp networks/fattree.cpp networks/flatfly_onchip.cpp networks/fly.cpp networks/kncube.cpp networks/network.cpp networks/qtree.cpp networks/tree4.cpp power/buffer_monitor.cpp power/power_module.cpp power/switch_monitor.cpp routers/chaos_router.cpp routers/event_router.cpp routers/iq_router.cpp routers/router.cpp 2> /dev/null
flex -o/home/roman/dev/box/accelsim/accel-sim-framework-dev/gpu-simulator/gpgpu-sim/build/gcc-8.4.0/cuda-10010/release/intersim2/lex.yy.c config.l
bison -y -d config.y --file-prefix=/home/roman/dev/box/accelsim/accel-sim-framework-dev/gpu-simulator/gpgpu-sim/build/gcc-8.4.0/cuda-10010/release/intersim2/y
bison -y -d config.y --file-prefix=/home/roman/dev/box/accelsim/accel-sim-framework-dev/gpu-simulator/gpgpu-sim/build/gcc-8.4.0/cuda-10010/release/intersim2/y
g++ -Wall -I. -Iarbiters -Iallocators -Irouters -Inetworks -Ipower -I/home/roman/dev/box/accelsim/accel-sim-framework-dev/gpu-simulator/gpgpu-sim/src -I/home/roman/dev/box/accelsim/accel-sim-framework-dev/gpu-simulator/gpgpu-sim/src/gpgpu-sim/  -DCREATE_LIBRARY -O3 -g -fPIC -I/usr/local/cuda/include -c config_utils.cpp -o /home/roman/dev/box/accelsim/accel-sim-framework-dev/gpu-simulator/gpgpu-sim/build/gcc-8.4.0/cuda-10010/release/intersim2/config_utils.o
g++ -Wall -I. -Iarbiters -Iallocators -Irouters -Inetworks -Ipower -I/home/roman/dev/box/accelsim/accel-sim-framework-dev/gpu-simulator/gpgpu-sim/src -I/home/roman/dev/box/accelsim/accel-sim-framework-dev/gpu-simulator/gpgpu-sim/src/gpgpu-sim/  -DCREATE_LIBRARY -O3 -g -fPIC -I/usr/local/cuda/include -c booksim_config.cpp -o /home/roman/dev/box/accelsim/accel-sim-framework-dev/gpu-simulator/gpgpu-sim/build/gcc-8.4.0/cuda-10010/release/intersim2/booksim_config.o
g++ -Wall -I. -Iarbiters -Iallocators -Irouters -Inetworks -Ipower -I/home/roman/dev/box/accelsim/accel-sim-framework-dev/gpu-simulator/gpgpu-sim/src -I/home/roman/dev/box/accelsim/accel-sim-framework-dev/gpu-simulator/gpgpu-sim/src/gpgpu-sim/  -DCREATE_LIBRARY -O3 -g -fPIC -I/usr/local/cuda/include -c module.cpp -o /home/roman/dev/box/accelsim/accel-sim-framework-dev/gpu-simulator/gpgpu-sim/build/gcc-8.4.0/cuda-10010/release/intersim2/module.o
g++ -Wall -I. -Iarbiters -Iallocators -Irouters -Inetworks -Ipower -I/home/roman/dev/box/accelsim/accel-sim-framework-dev/gpu-simulator/gpgpu-sim/src -I/home/roman/dev/box/accelsim/accel-sim-framework-dev/gpu-simulator/gpgpu-sim/src/gpgpu-sim/  -DCREATE_LIBRARY -O3 -g -fPIC -I/usr/local/cuda/include -c buffer.cpp -o /home/roman/dev/box/accelsim/accel-sim-framework-dev/gpu-simulator/gpgpu-sim/build/gcc-8.4.0/cuda-10010/release/intersim2/buffer.o
g++ -Wall -I. -Iarbiters -Iallocators -Irouters -Inetworks -Ipower -I/home/roman/dev/box/accelsim/accel-sim-framework-dev/gpu-simulator/gpgpu-sim/src -I/home/roman/dev/box/accelsim/accel-sim-framework-dev/gpu-simulator/gpgpu-sim/src/gpgpu-sim/  -DCREATE_LIBRARY -O3 -g -fPIC -I/usr/local/cuda/include -c vc.cpp -o /home/roman/dev/box/accelsim/accel-sim-framework-dev/gpu-simulator/gpgpu-sim/build/gcc-8.4.0/cuda-10010/release/intersim2/vc.o
g++ -Wall -I. -Iarbiters -Iallocators -Irouters -Inetworks -Ipower -I/home/roman/dev/box/accelsim/accel-sim-framework-dev/gpu-simulator/gpgpu-sim/src -I/home/roman/dev/box/accelsim/accel-sim-framework-dev/gpu-simulator/gpgpu-sim/src/gpgpu-sim/  -DCREATE_LIBRARY -O3 -g -fPIC -I/usr/local/cuda/include -c routefunc.cpp -o /home/roman/dev/box/accelsim/accel-sim-framework-dev/gpu-simulator/gpgpu-sim/build/gcc-8.4.0/cuda-10010/release/intersim2/routefunc.o
[...]
g++ -Wall -I. -Iarbiters -Iallocators -Irouters -Inetworks -Ipower -I/home/roman/dev/box/accelsim/accel-sim-framework-dev/gpu-simulator/gpgpu-sim/src -I/home/roman/dev/box/accelsim/accel-sim-framework-dev/gpu-simulator/gpgpu-sim/src/gpgpu-sim/  -DCREATE_LIBRARY -O3 -g -fPIC -I/usr/local/cuda/include -c allocators/pim.cpp -o /home/roman/dev/box/accelsim/accel-sim-framework-dev/gpu-simulator/gpgpu-sim/build/gcc-8.4.0/cuda-10010/release/intersim2/pim.o
g++ -Wall -I. -Iarbiters -Iallocators -Irouters -Inetworks -Ipower -I/home/roman/dev/box/accelsim/accel-sim-framework-dev/gpu-simulator/gpgpu-sim/src -I/home/roman/dev/box/accelsim/accel-sim-framework-dev/gpu-simulator/gpgpu-sim/src/gpgpu-sim/  -DCREATE_LIBRARY -O3 -g -fPIC -I/usr/local/cuda/include -c allocators/separable_input_first.cpp -o /home/roman/dev/box/accelsim/accel-sim-framework-dev/gpu-simulator/gpgpu-sim/build/gcc-8.4.0/cuda-10010/release/intersim2/separable_input_first.o
g++ -Wall -I. -Iarbiters -Iallocators -Irouters -Inetworks -Ipower -I/home/roman/dev/box/accelsim/accel-sim-framework-dev/gpu-simulator/gpgpu-sim/src -I/home/roman/dev/box/accelsim/accel-sim-framework-dev/gpu-simulator/gpgpu-sim/src/gpgpu-sim/  -DCREATE_LIBRARY -O3 -g -fPIC -I/usr/local/cuda/include -c allocators/loa.cpp -o /home/roman/dev/box/accelsim/accel-sim-framework-dev/gpu-simulator/gpgpu-sim/build/gcc-8.4.0/cuda-10010/release/intersim2/loa.o
g++ -Wall -I. -Iarbiters -Iallocators -Irouters -Inetworks -Ipower -I/home/roman/dev/box/accelsim/accel-sim-framework-dev/gpu-simulator/gpgpu-sim/src -I/home/roman/dev/box/accelsim/accel-sim-framework-dev/gpu-simulator/gpgpu-sim/src/gpgpu-sim/  -DCREATE_LIBRARY -O3 -g -fPIC -I/usr/local/cuda/include -c allocators/maxsize.cpp -o /home/roman/dev/box/accelsim/accel-sim-framework-dev/gpu-simulator/gpgpu-sim/build/gcc-8.4.0/cuda-10010/release/intersim2/maxsize.o
g++ -Wall -I. -Iarbiters -Iallocators -Irouters -Inetworks -Ipower -I/home/roman/dev/box/accelsim/accel-sim-framework-dev/gpu-simulator/gpgpu-sim/src -I/home/roman/dev/box/accelsim/accel-sim-framework-dev/gpu-simulator/gpgpu-sim/src/gpgpu-sim/  -DCREATE_LIBRARY -O3 -g -fPIC -I/usr/local/cuda/include -c arbiters/prio_arb.cpp -o /home/roman/dev/box/accelsim/accel-sim-framework-dev/gpu-simulator/gpgpu-sim/build/gcc-8.4.0/cuda-10010/release/intersim2/prio_arb.o
g++ -Wall -I. -Iarbiters -Iallocators -Irouters -Inetworks -Ipower -I/home/roman/dev/box/accelsim/accel-sim-framework-dev/gpu-simulator/gpgpu-sim/src -I/home/roman/dev/box/accelsim/accel-sim-framework-dev/gpu-simulator/gpgpu-sim/src/gpgpu-sim/  -DCREATE_LIBRARY -O3 -g -fPIC -I/usr/local/cuda/include -c arbiters/matrix_arb.cpp -o /home/roman/dev/box/accelsim/accel-sim-framework-dev/gpu-simulator/gpgpu-sim/build/gcc-8.4.0/cuda-10010/release/intersim2/matrix_arb.o
g++ -Wall -I. -Iarbiters -Iallocators -Irouters -Inetworks -Ipower -I/home/roman/dev/box/accelsim/accel-sim-framework-dev/gpu-simulator/gpgpu-sim/src -I/home/roman/dev/box/accelsim/accel-sim-framework-dev/gpu-simulator/gpgpu-sim/src/gpgpu-sim/  -DCREATE_LIBRARY -O3 -g -fPIC -I/usr/local/cuda/include -c arbiters/tree_arb.cpp -o /home/roman/dev/box/accelsim/accel-sim-framework-dev/gpu-simulator/gpgpu-sim/build/gcc-8.4.0/cuda-10010/release/intersim2/tree_arb.o
g++ -Wall -I. -Iarbiters -Iallocators -Irouters -Inetworks -Ipower -I/home/roman/dev/box/accelsim/accel-sim-framework-dev/gpu-simulator/gpgpu-sim/src -I/home/roman/dev/box/accelsim/accel-sim-framework-dev/gpu-simulator/gpgpu-sim/src/gpgpu-sim/  -DCREATE_LIBRARY -O3 -g -fPIC -I/usr/local/cuda/include -c arbiters/roundrobin_arb.cpp -o /home/roman/dev/box/accelsim/accel-sim-framework-dev/gpu-simulator/gpgpu-sim/build/gcc-8.4.0/cuda-10010/release/intersim2/roundrobin_arb.o
g++ -Wall -I. -Iarbiters -Iallocators -Irouters -Inetworks -Ipower -I/home/roman/dev/box/accelsim/accel-sim-framework-dev/gpu-simulator/gpgpu-sim/src -I/home/roman/dev/box/accelsim/accel-sim-framework-dev/gpu-simulator/gpgpu-sim/src/gpgpu-sim/  -DCREATE_LIBRARY -O3 -g -fPIC -I/usr/local/cuda/include -c arbiters/arbiter.cpp -o /home/roman/dev/box/accelsim/accel-sim-framework-dev/gpu-simulator/gpgpu-sim/build/gcc-8.4.0/cuda-10010/release/intersim2/arbiter.o
g++ -Wall -I. -Iarbiters -Iallocators -Irouters -Inetworks -Ipower -I/home/roman/dev/box/accelsim/accel-sim-framework-dev/gpu-simulator/gpgpu-sim/src -I/home/roman/dev/box/accelsim/accel-sim-framework-dev/gpu-simulator/gpgpu-sim/src/gpgpu-sim/  -DCREATE_LIBRARY -O3 -g -fPIC -I/usr/local/cuda/include -c routers/router.cpp -o /home/roman/dev/box/accelsim/accel-sim-framework-dev/gpu-simulator/gpgpu-sim/build/gcc-8.4.0/cuda-10010/release/intersim2/router.o
g++ -Wall -I. -Iarbiters -Iallocators -Irouters -Inetworks -Ipower -I/home/roman/dev/box/accelsim/accel-sim-framework-dev/gpu-simulator/gpgpu-sim/src -I/home/roman/dev/box/accelsim/accel-sim-framework-dev/gpu-simulator/gpgpu-sim/src/gpgpu-sim/  -DCREATE_LIBRARY -O3 -g -fPIC -I/usr/local/cuda/include -c routers/event_router.cpp -o /home/roman/dev/box/accelsim/accel-sim-framework-dev/gpu-simulator/gpgpu-sim/build/gcc-8.4.0/cuda-10010/release/intersim2/event_router.o
g++ -Wall -I. -Iarbiters -Iallocators -Irouters -Inetworks -Ipower -I/home/roman/dev/box/accelsim/accel-sim-framework-dev/gpu-simulator/gpgpu-sim/src -I/home/roman/dev/box/accelsim/accel-sim-framework-dev/gpu-simulator/gpgpu-sim/src/gpgpu-sim/  -DCREATE_LIBRARY -O3 -g -fPIC -I/usr/local/cuda/include -c routers/iq_router.cpp -o /home/roman/dev/box/accelsim/accel-sim-framework-dev/gpu-simulator/gpgpu-sim/build/gcc-8.4.0/cuda-10010/release/intersim2/iq_router.o
g++ -Wall -I. -Iarbiters -Iallocators -Irouters -Inetworks -Ipower -I/home/roman/dev/box/accelsim/accel-sim-framework-dev/gpu-simulator/gpgpu-sim/src -I/home/roman/dev/box/accelsim/accel-sim-framework-dev/gpu-simulator/gpgpu-sim/src/gpgpu-sim/  -DCREATE_LIBRARY -O3 -g -fPIC -I/usr/local/cuda/include -c routers/chaos_router.cpp -o /home/roman/dev/box/accelsim/accel-sim-framework-dev/gpu-simulator/gpgpu-sim/build/gcc-8.4.0/cuda-10010/release/intersim2/chaos_router.o
gcc -Wall -I. -Iarbiters -Iallocators -Irouters -Inetworks -Ipower -I/home/roman/dev/box/accelsim/accel-sim-framework-dev/gpu-simulator/gpgpu-sim/src -I/home/roman/dev/box/accelsim/accel-sim-framework-dev/gpu-simulator/gpgpu-sim/src/gpgpu-sim/  -DCREATE_LIBRARY -O3 -g -fPIC -I/usr/local/cuda/include -c /home/roman/dev/box/accelsim/accel-sim-framework-dev/gpu-simulator/gpgpu-sim/build/gcc-8.4.0/cuda-10010/release/intersim2/lex.yy.c -o /home/roman/dev/box/accelsim/accel-sim-framework-dev/gpu-simulator/gpgpu-sim/build/gcc-8.4.0/cuda-10010/release/intersim2/lex.yy.o
gcc -Wall -I. -Iarbiters -Iallocators -Irouters -Inetworks -Ipower -I/home/roman/dev/box/accelsim/accel-sim-framework-dev/gpu-simulator/gpgpu-sim/src -I/home/roman/dev/box/accelsim/accel-sim-framework-dev/gpu-simulator/gpgpu-sim/src/gpgpu-sim/  -DCREATE_LIBRARY -O3 -g -fPIC -I/usr/local/cuda/include -c /home/roman/dev/box/accelsim/accel-sim-framework-dev/gpu-simulator/gpgpu-sim/build/gcc-8.4.0/cuda-10010/release/intersim2/y.tab.c -o /home/roman/dev/box/accelsim/accel-sim-framework-dev/gpu-simulator/gpgpu-sim/build/gcc-8.4.0/cuda-10010/release/intersim2/y.tab.o
make[2]: Leaving directory '/home/roman/dev/box/accelsim/accel-sim-framework-dev/gpu-simulator/gpgpu-sim/src/intersim2'
make -C ./src/ depend
make[2]: Entering directory '/home/roman/dev/box/accelsim/accel-sim-framework-dev/gpu-simulator/gpgpu-sim/src'
touch /home/roman/dev/box/accelsim/accel-sim-framework-dev/gpu-simulator/gpgpu-sim/build/gcc-8.4.0/cuda-10010/release/Makefile.makedepend
makedepend -f/home/roman/dev/box/accelsim/accel-sim-framework-dev/gpu-simulator/gpgpu-sim/build/gcc-8.4.0/cuda-10010/release/Makefile.makedepend -p/home/roman/dev/box/accelsim/accel-sim-framework-dev/gpu-simulator/gpgpu-sim/build/gcc-8.4.0/cuda-10010/release/ abstract_hardware_model.cc debug.cc gpgpusim_entrypoint.cc option_parser.cc statwrapper.cc stream_manager.cc trace.cc 2> /dev/null
make[2]: 'depend' is up to date.
make[2]: Leaving directory '/home/roman/dev/box/accelsim/accel-sim-framework-dev/gpu-simulator/gpgpu-sim/src'
make -C ./src/
make[2]: Entering directory '/home/roman/dev/box/accelsim/accel-sim-framework-dev/gpu-simulator/gpgpu-sim/src'
touch /home/roman/dev/box/accelsim/accel-sim-framework-dev/gpu-simulator/gpgpu-sim/build/gcc-8.4.0/cuda-10010/release/Makefile.makedepend
makedepend -f/home/roman/dev/box/accelsim/accel-sim-framework-dev/gpu-simulator/gpgpu-sim/build/gcc-8.4.0/cuda-10010/release/Makefile.makedepend -p/home/roman/dev/box/accelsim/accel-sim-framework-dev/gpu-simulator/gpgpu-sim/build/gcc-8.4.0/cuda-10010/release/ abstract_hardware_model.cc debug.cc gpgpusim_entrypoint.cc option_parser.cc statwrapper.cc stream_manager.cc trace.cc 2> /dev/null
g++  -O3 -g3 -fPIC -Wall -DDEBUG -DCUDART_VERSION=10010 -std=c++0x -DTRACING_ON=1 -I/usr/local/cuda/include -o /home/roman/dev/box/accelsim/accel-sim-framework-dev/gpu-simulator/gpgpu-sim/build/gcc-8.4.0/cuda-10010/release/abstract_hardware_model.o -c abstract_hardware_model.cc
g++  -O3 -g3 -fPIC -Wall -DDEBUG -DCUDART_VERSION=10010 -std=c++0x -DTRACING_ON=1 -I/usr/local/cuda/include -o /home/roman/dev/box/accelsim/accel-sim-framework-dev/gpu-simulator/gpgpu-sim/build/gcc-8.4.0/cuda-10010/release/debug.o -c debug.cc
g++  -O3 -g3 -fPIC -Wall -DDEBUG -DCUDART_VERSION=10010 -std=c++0x -DTRACING_ON=1 -I/usr/local/cuda/include -o /home/roman/dev/box/accelsim/accel-sim-framework-dev/gpu-simulator/gpgpu-sim/build/gcc-8.4.0/cuda-10010/release/gpgpusim_entrypoint.o -c gpgpusim_entrypoint.cc
g++  -O3 -g3 -fPIC -Wall -DDEBUG -DCUDART_VERSION=10010 -std=c++0x -DTRACING_ON=1 -I/usr/local/cuda/include -o /home/roman/dev/box/accelsim/accel-sim-framework-dev/gpu-simulator/gpgpu-sim/build/gcc-8.4.0/cuda-10010/release/option_parser.o -c option_parser.cc
g++  -O3 -g3 -fPIC -Wall -DDEBUG -DCUDART_VERSION=10010 -std=c++0x -DTRACING_ON=1 -I/usr/local/cuda/include -o /home/roman/dev/box/accelsim/accel-sim-framework-dev/gpu-simulator/gpgpu-sim/build/gcc-8.4.0/cuda-10010/release/statwrapper.o -c statwrapper.cc
g++  -O3 -g3 -fPIC -Wall -DDEBUG -DCUDART_VERSION=10010 -std=c++0x -DTRACING_ON=1 -I/usr/local/cuda/include -o /home/roman/dev/box/accelsim/accel-sim-framework-dev/gpu-simulator/gpgpu-sim/build/gcc-8.4.0/cuda-10010/release/stream_manager.o -c stream_manager.cc
g++  -O3 -g3 -fPIC -Wall -DDEBUG -DCUDART_VERSION=10010 -std=c++0x -DTRACING_ON=1 -I/usr/local/cuda/include -o /home/roman/dev/box/accelsim/accel-sim-framework-dev/gpu-simulator/gpgpu-sim/build/gcc-8.4.0/cuda-10010/release/trace.o -c trace.cc
make   -C ./gpgpu-sim
make[3]: Entering directory '/home/roman/dev/box/accelsim/accel-sim-framework-dev/gpu-simulator/gpgpu-sim/src/gpgpu-sim'
touch /home/roman/dev/box/accelsim/accel-sim-framework-dev/gpu-simulator/gpgpu-sim/build/gcc-8.4.0/cuda-10010/release/gpgpu-sim/Makefile.makedepend
makedepend -f/home/roman/dev/box/accelsim/accel-sim-framework-dev/gpu-simulator/gpgpu-sim/build/gcc-8.4.0/cuda-10010/release/gpgpu-sim/Makefile.makedepend -p/home/roman/dev/box/accelsim/accel-sim-framework-dev/gpu-simulator/gpgpu-sim/build/gcc-8.4.0/cuda-10010/release/gpgpu-sim/ addrdec.cc dram.cc dram_sched.cc gpu-cache.cc gpu-misc.cc gpu-sim.cc hashing.cc histogram.cc icnt_wrapper.cc l2cache.cc local_interconnect.cc mem_fetch.cc mem_latency_stat.cc power_interface.cc power_stat.cc scoreboard.cc shader.cc singleton.cc stack.cc stat-tool.cc traffic_breakdown.cc visualizer.cc 2> /dev/null
ar rcs  /home/roman/dev/box/accelsim/accel-sim-framework-dev/gpu-simulator/gpgpu-sim/build/gcc-8.4.0/cuda-10010/release/gpgpu-sim/libgpu_uarch_sim.a /home/roman/dev/box/accelsim/accel-sim-framework-dev/gpu-simulator/gpgpu-sim/build/gcc-8.4.0/cuda-10010/release/gpgpu-sim/addrdec.o /home/roman/dev/box/accelsim/accel-sim-framework-dev/gpu-simulator/gpgpu-sim/build/gcc-8.4.0/cuda-10010/release/gpgpu-sim/dram.o /home/roman/dev/box/accelsim/accel-sim-framework-dev/gpu-simulator/gpgpu-sim/build/gcc-8.4.0/cuda-10010/release/gpgpu-sim/dram_sched.o /home/roman/dev/box/accelsim/accel-sim-framework-dev/gpu-simulator/gpgpu-sim/build/gcc-8.4.0/cuda-10010/release/gpgpu-sim/gpu-cache.o /home/roman/dev/box/accelsim/accel-sim-framework-dev/gpu-simulator/gpgpu-sim/build/gcc-8.4.0/cuda-10010/release/gpgpu-sim/gpu-misc.o /home/roman/dev/box/accelsim/accel-sim-framework-dev/gpu-simulator/gpgpu-sim/build/gcc-8.4.0/cuda-10010/release/gpgpu-sim/gpu-sim.o /home/roman/dev/box/accelsim/accel-sim-framework-dev/gpu-simulator/gpgpu-sim/build/gcc-8.4.0/cuda-10010/release/gpgpu-sim/hashing.o /home/roman/dev/box/accelsim/accel-sim-framework-dev/gpu-simulator/gpgpu-sim/build/gcc-8.4.0/cuda-10010/release/gpgpu-sim/histogram.o /home/roman/dev/box/accelsim/accel-sim-framework-dev/gpu-simulator/gpgpu-sim/build/gcc-8.4.0/cuda-10010/release/gpgpu-sim/icnt_wrapper.o /home/roman/dev/box/accelsim/accel-sim-framework-dev/gpu-simulator/gpgpu-sim/build/gcc-8.4.0/cuda-10010/release/gpgpu-sim/l2cache.o /home/roman/dev/box/accelsim/accel-sim-framework-dev/gpu-simulator/gpgpu-sim/build/gcc-8.4.0/cuda-10010/release/gpgpu-sim/local_interconnect.o /home/roman/dev/box/accelsim/accel-sim-framework-dev/gpu-simulator/gpgpu-sim/build/gcc-8.4.0/cuda-10010/release/gpgpu-sim/mem_fetch.o /home/roman/dev/box/accelsim/accel-sim-framework-dev/gpu-simulator/gpgpu-sim/build/gcc-8.4.0/cuda-10010/release/gpgpu-sim/mem_latency_stat.o /home/roman/dev/box/accelsim/accel-sim-framework-dev/gpu-simulator/gpgpu-sim/build/gcc-8.4.0/cuda-10010/release/gpgpu-sim/power_interface.o /home/roman/dev/box/accelsim/accel-sim-framework-dev/gpu-simulator/gpgpu-sim/build/gcc-8.4.0/cuda-10010/release/gpgpu-sim/power_stat.o /home/roman/dev/box/accelsim/accel-sim-framework-dev/gpu-simulator/gpgpu-sim/build/gcc-8.4.0/cuda-10010/release/gpgpu-sim/scoreboard.o /home/roman/dev/box/accelsim/accel-sim-framework-dev/gpu-simulator/gpgpu-sim/build/gcc-8.4.0/cuda-10010/release/gpgpu-sim/shader.o /home/roman/dev/box/accelsim/accel-sim-framework-dev/gpu-simulator/gpgpu-sim/build/gcc-8.4.0/cuda-10010/release/gpgpu-sim/singleton.o /home/roman/dev/box/accelsim/accel-sim-framework-dev/gpu-simulator/gpgpu-sim/build/gcc-8.4.0/cuda-10010/release/gpgpu-sim/stack.o /home/roman/dev/box/accelsim/accel-sim-framework-dev/gpu-simulator/gpgpu-sim/build/gcc-8.4.0/cuda-10010/release/gpgpu-sim/stat-tool.o /home/roman/dev/box/accelsim/accel-sim-framework-dev/gpu-simulator/gpgpu-sim/build/gcc-8.4.0/cuda-10010/release/gpgpu-sim/traffic_breakdown.o /home/roman/dev/box/accelsim/accel-sim-framework-dev/gpu-simulator/gpgpu-sim/build/gcc-8.4.0/cuda-10010/release/gpgpu-sim/visualizer.o
make[3]: Leaving directory '/home/roman/dev/box/accelsim/accel-sim-framework-dev/gpu-simulator/gpgpu-sim/src/gpgpu-sim'
ar rcs  /home/roman/dev/box/accelsim/accel-sim-framework-dev/gpu-simulator/gpgpu-sim/build/gcc-8.4.0/cuda-10010/release/libgpgpusim.a /home/roman/dev/box/accelsim/accel-sim-framework-dev/gpu-simulator/gpgpu-sim/build/gcc-8.4.0/cuda-10010/release/abstract_hardware_model.o /home/roman/dev/box/accelsim/accel-sim-framework-dev/gpu-simulator/gpgpu-sim/build/gcc-8.4.0/cuda-10010/release/debug.o /home/roman/dev/box/accelsim/accel-sim-framework-dev/gpu-simulator/gpgpu-sim/build/gcc-8.4.0/cuda-10010/release/gpgpusim_entrypoint.o /home/roman/dev/box/accelsim/accel-sim-framework-dev/gpu-simulator/gpgpu-sim/build/gcc-8.4.0/cuda-10010/release/option_parser.o /home/roman/dev/box/accelsim/accel-sim-framework-dev/gpu-simulator/gpgpu-sim/build/gcc-8.4.0/cuda-10010/release/statwrapper.o /home/roman/dev/box/accelsim/accel-sim-framework-dev/gpu-simulator/gpgpu-sim/build/gcc-8.4.0/cuda-10010/release/stream_manager.o /home/roman/dev/box/accelsim/accel-sim-framework-dev/gpu-simulator/gpgpu-sim/build/gcc-8.4.0/cuda-10010/release/trace.o /home/roman/dev/box/accelsim/accel-sim-framework-dev/gpu-simulator/gpgpu-sim/build/gcc-8.4.0/cuda-10010/release/gpgpu-sim/*.o
make[2]: Leaving directory '/home/roman/dev/box/accelsim/accel-sim-framework-dev/gpu-simulator/gpgpu-sim/src'
g++ -shared -Wl,-soname,libcudart.so -Wl,--version-script=linux-so-version.txt\
		/home/roman/dev/box/accelsim/accel-sim-framework-dev/gpu-simulator/gpgpu-sim/build/gcc-8.4.0/cuda-10010/release/libcuda/*.o \
		/home/roman/dev/box/accelsim/accel-sim-framework-dev/gpu-simulator/gpgpu-sim/build/gcc-8.4.0/cuda-10010/release/cuda-sim/*.o \
		/home/roman/dev/box/accelsim/accel-sim-framework-dev/gpu-simulator/gpgpu-sim/build/gcc-8.4.0/cuda-10010/release/cuda-sim/decuda_pred_table/*.o \
		/home/roman/dev/box/accelsim/accel-sim-framework-dev/gpu-simulator/gpgpu-sim/build/gcc-8.4.0/cuda-10010/release/gpgpu-sim/*.o \
		/home/roman/dev/box/accelsim/accel-sim-framework-dev/gpu-simulator/gpgpu-sim/build/gcc-8.4.0/cuda-10010/release/intersim2/*.o \
		/home/roman/dev/box/accelsim/accel-sim-framework-dev/gpu-simulator/gpgpu-sim/build/gcc-8.4.0/cuda-10010/release/*.o -lm -lz -lGL -pthread \
		/home/roman/dev/box/accelsim/accel-sim-framework-dev/gpu-simulator/gpgpu-sim/build/gcc-8.4.0/cuda-10010/release/accelwattch/*.o \
		-o lib/gcc-8.4.0/cuda-10010/release/libcudart.so
if [ ! -f lib/gcc-8.4.0/cuda-10010/release/libcudart.so.2 ]; then ln -s libcudart.so lib/gcc-8.4.0/cuda-10010/release/libcudart.so.2; fi
if [ ! -f lib/gcc-8.4.0/cuda-10010/release/libcudart.so.3 ]; then ln -s libcudart.so lib/gcc-8.4.0/cuda-10010/release/libcudart.so.3; fi
if [ ! -f lib/gcc-8.4.0/cuda-10010/release/libcudart.so.4 ]; then ln -s libcudart.so lib/gcc-8.4.0/cuda-10010/release/libcudart.so.4; fi
if [ ! -f lib/gcc-8.4.0/cuda-10010/release/libcudart.so.5.0 ]; then ln -s libcudart.so lib/gcc-8.4.0/cuda-10010/release/libcudart.so.5.0; fi
if [ ! -f lib/gcc-8.4.0/cuda-10010/release/libcudart.so.5.5 ]; then ln -s libcudart.so lib/gcc-8.4.0/cuda-10010/release/libcudart.so.5.5; fi
if [ ! -f lib/gcc-8.4.0/cuda-10010/release/libcudart.so.6.0 ]; then ln -s libcudart.so lib/gcc-8.4.0/cuda-10010/release/libcudart.so.6.0; fi
if [ ! -f lib/gcc-8.4.0/cuda-10010/release/libcudart.so.6.5 ]; then ln -s libcudart.so lib/gcc-8.4.0/cuda-10010/release/libcudart.so.6.5; fi
if [ ! -f lib/gcc-8.4.0/cuda-10010/release/libcudart.so.7.0 ]; then ln -s libcudart.so lib/gcc-8.4.0/cuda-10010/release/libcudart.so.7.0; fi
if [ ! -f lib/gcc-8.4.0/cuda-10010/release/libcudart.so.7.5 ]; then ln -s libcudart.so lib/gcc-8.4.0/cuda-10010/release/libcudart.so.7.5; fi
if [ ! -f lib/gcc-8.4.0/cuda-10010/release/libcudart.so.8.0 ]; then ln -s libcudart.so lib/gcc-8.4.0/cuda-10010/release/libcudart.so.8.0; fi
if [ ! -f lib/gcc-8.4.0/cuda-10010/release/libcudart.so.9.0 ]; then ln -s libcudart.so lib/gcc-8.4.0/cuda-10010/release/libcudart.so.9.0; fi
if [ ! -f lib/gcc-8.4.0/cuda-10010/release/libcudart.so.9.1 ]; then ln -s libcudart.so lib/gcc-8.4.0/cuda-10010/release/libcudart.so.9.1; fi
if [ ! -f lib/gcc-8.4.0/cuda-10010/release/libcudart.so.9.2 ]; then ln -s libcudart.so lib/gcc-8.4.0/cuda-10010/release/libcudart.so.9.2; fi
if [ ! -f lib/gcc-8.4.0/cuda-10010/release/libcudart.so.10.0 ]; then ln -s libcudart.so lib/gcc-8.4.0/cuda-10010/release/libcudart.so.10.0; fi
if [ ! -f lib/gcc-8.4.0/cuda-10010/release/libcudart.so.10.1 ]; then ln -s libcudart.so lib/gcc-8.4.0/cuda-10010/release/libcudart.so.10.1; fi
if [ ! -f lib/gcc-8.4.0/cuda-10010/release/libcudart.so.11.0 ]; then ln -s libcudart.so lib/gcc-8.4.0/cuda-10010/release/libcudart.so.11.0; fi
make[1]: Leaving directory '/home/roman/dev/box/accelsim/accel-sim-framework-dev/gpu-simulator/gpgpu-sim'
g++ -std=c++0x -o ./bin/release/accel-sim.out  -L/home/roman/dev/box/accelsim/accel-sim-framework-dev/gpu-simulator/gpgpu-sim/lib/gcc-8.4.0/cuda-10010/release/ -lcudart -lm -lz -lGL -pthread ./build/release/*.o
make: Leaving directory '/home/roman/dev/box/accelsim/accel-sim-framework-dev/gpu-simulator'
